10
99
C 0.0 0.0 0.0
C 1.38854203357 0.0 0.0
C 2.1887942872529353 1.2022960633699362 0.0
C 3.5338973122646324 1.185215495901445 0.17753901697184366
H 0.3019159762074745 -0.41419061608890223 1.0580503310883946
H -0.5181968853287401 -0.8990594266265912 -0.3296964813506084
H 2.0001357213128395 -0.904579043229369 0.11450095258789403
H 1.6563622049294546 2.12441877736405 -0.1458093705780607
H 4.068284823528591 0.2652338003359709 0.33720445616184547
H 4.114815274235575 2.0880306039884795 0.1424865548303379
