10
15
C 0.0 0.0 0.0
C 1.4284485876 0.0 0.0
C 2.26870913073 1.1709512053 0.0
C 3.60385601518 1.11337531258 0.107063512274
H -0.439860730395 0.954754033817 0.313947252745
H -0.531841721318 -0.944676147701 -0.00209857298738
H 1.92804280893 -0.967886027712 0.029886100939
H 1.77607872215 2.13422599596 -0.0888246324695
H 4.13326513445 0.173006423321 0.206954758528
H 4.1973521004 2.02005687363 0.10106851378
