10
90
C 0.0 0.0 0.0
C 1.39281773579 0.0 0.0
C 2.19741323183 1.19900236287 0.0
C 3.54168757394 1.1774463438 0.169901436848
H 0.217793454638 -0.226572966486 1.12413696025
H -0.519672481448 -0.909456177184 -0.295404656552
H 1.993027431 -0.912231746926 0.105133646866
H 1.66897732065 2.12570768808 -0.139732532455
H 4.07572074648 0.255198719186 0.323280640041
H 4.12381156661 2.08080813639 0.137738971067
