10
86
C 0.0 0.0 0.0
C 1.39471804789 0.0 0.0
C 2.2012395577482176 1.197533467086191 0.0
C 3.5451268216726 1.1739985434462914 0.16651335336766215
H 0.1803983847058858 -0.13925346254916823 1.1409632728592471
H -0.5203272531013449 -0.9136579030021812 -0.28005935892432227
H 1.9898178353511442 -0.915566931706395 0.1009912321117517
H 1.674600638223331 2.1262626650823506 -0.13702920496547122
H 4.078988699990717 0.2507496414906585 0.3170893002764211
H 4.127797553517394 2.0775937708339516 0.13565286499882004
