10
48
C 0.0 0.0 0.0
C 1.4127710128 0.0 0.0
C 2.2374561369062507 1.183425627316153 0.0
C 3.5770994767943307 1.14141139195935 0.134529037579284
H -0.1668177152774403 0.6429243164669409 0.9116470540648796
H -0.5265153333060499 -0.9405619251079747 -0.13200122971561076
H 1.957844439397852 -0.9452019492636328 0.0623308281946343
H 1.7285252612796302 2.1309759156323866 -0.11127718375743449
H 4.108910417788129 0.20883908704972642 0.2581923120035799
H 4.165297705512205 2.046916955355036 0.11656834912638989
