10
28
C 0.0 0.0 0.0
C 1.42227257329 0.0 0.0
C 2.25641953505 1.1758899124 0.0
C 3.59342591933 1.12438908749 0.117847718079
H -0.336798879075 0.890147737522 0.569762389574
H -0.529748725782 -0.945192845002 -0.0532462010001
H 1.9399963724 -0.959291801037 0.0425326517648
H 1.75726645515 2.13304110273 -0.097678207423
H 4.12384994913 0.187056311297 0.227147005648
H 4.18477912288 2.03066372406 0.107055722566
