10
67
C 0.0 0.0 0.0
C 1.40374453035 0.0 0.0
C 2.21937815393 1.19051412468 0.0
C 3.56127065265 1.15766632787 0.150474773024
H 0.00414607594404 0.279447108084 1.11111767136
H -0.523428593945 -0.930065356004 -0.206450373085
H 1.9741598729 -0.930850191658 0.0814990093316
H 1.70144981352 2.12874680237 -0.124168441371
H 4.09420285042 0.2297119487 0.287657497721
H 4.14662928754 2.06228772676 0.125944820347
