10
58
C 0.0 0.0 0.0
C 1.40802023256 0.0 0.0
C 2.22794899683 1.18716500409 0.0
C 3.568807516 1.14995672526 0.142909768144
H -0.0777407902398 0.463317638658 1.03574276564
H -0.524892555595 -0.935776946862 -0.171260767779
H 1.96651146071 -0.937765150194 0.0723773342985
H 1.71424702422 2.12983480914 -0.118065650909
H 4.10123245828 0.219803664251 0.273704090342
H 4.15549219259 2.05501509654 0.121462044943
