10
76
C 0.0 0.0 0.0
C 1.39946882813 0.0 0.0
C 2.21079371077 1.19384772846 0.0
C 3.55366310798 1.16539327205 0.158060610732
H 0.0872231499962 0.0829628160369 1.14785095542
H -0.521961356074 -0.923026951752 -0.24145143062
H 1.98166075132 -0.923726205699 0.0906933998756
H 1.68870337509 2.12760157316 -0.130264389472
H 4.0870595739 0.239657219243 0.301603414539
H 4.13772974054 2.06954583647 0.130501996327
