10
24
C 0.0 0.0 0.0
C 1.42417288538 0.0 0.0
C 2.26020403237 1.17437369715 0.0
C 3.59665036542 1.12099589203 0.114524516231
H -0.369203805989 0.918470710586 0.492177672576
H -0.530393455891 -0.945329246568 -0.0374949519759
H 1.93634719872 -0.96198368668 0.0386222231046
H 1.76304397012 2.13341900747 -0.0949551542247
H 4.12677162187 0.182723930962 0.220934951511
H 4.18865515307 2.02740369664 0.105197080642
