10
3
C 0.0 0.0 0.0
C 1.43414952389 0.0 0.0
C 2.280027600268169 1.1663642552271272 0.0
C 3.6133579435075243 1.1032455413781135 0.09715085406472088
H -0.528740573596443 0.9449792055347489 0.08086786168753678
H -0.5337676170853997 -0.9417451934273023 0.04493020989765651
H 1.9167736804425162 -0.9754221856969721 0.018376026027960582
H 1.7935339534914005 2.135207950116632 -0.08064325836322016
H 4.1417510909864435 0.1601165437953731 0.18830882744392263
H 4.208896980438787 2.0102352266527643 0.09567853294465731
