10
84
C 0.0 0.0 0.0
C 1.39566820394 0.0 0.0
C 2.2031517223607735 1.1967978609226757 0.0
C 3.546841135558447 1.172275852621445 0.16482080143933026
H 0.16171779757763796 -0.09505546540084993 1.1463830738275358
H -0.5206543967536056 -0.9156616502345627 -0.2723646426059428
H 1.9882015551132097 -0.9172192356950104 0.09892495080335569
H 1.6774161138759978 2.126536005894101 -0.13567697652292007
H 4.0806141799575055 0.24852767449939117 0.31399297012729654
H 4.129787722079075 2.0759855646215315 0.13461533276713658
