10
71
C 0.0 0.0 0.0
C 1.40184421825 0.0 0.0
C 2.21556452158 1.19199764529 0.0
C 3.5578982753 1.1610984116 0.153843703961
H 0.0409478318086 0.193158575172 1.13238301951
H -0.52277689251 -0.927100659125 -0.222032661341
H 1.97751201665 -0.927709713764 0.0855765953869
H 1.69577844068 2.12824484289 -0.126878617651
H 4.09104212289 0.234127564034 0.293856646446
H 4.14267849721 2.06551532624 0.127961042441
