10
17
C 0.0 0.0 0.0
C 1.42749843155 0.0 0.0
C 2.2668203098488853 1.1717130742091468 0.0
C 3.6022606483111645 1.1150670712717825 0.10871956351687959
H -0.4244408279208725 0.9499797293645046 0.35368425556328476
H -0.5315201691326848 -0.9449359941779295 -0.0099574202210941
H 1.9298993173536487 -0.966592898982789 0.03181990801493072
H 1.7731778951174617 2.1340518650387934 -0.090187394905876
H 4.131831715235632 0.17516220297107543 0.2100618125428522
H 4.195422309467675 2.0216909216660177 0.10197959054715591
