10
34
C 0.0 0.0 0.0
C 1.41942210514 0.0 0.0
C 2.25073766454 1.17815857585 0.0
C 3.5885638153 1.1294860051 0.12284074598
H -0.287126346506 0.833883423222 0.681986372225
H -0.528780412289 -0.944494990804 -0.0768825622379
H 1.94542110339 -0.955175002308 0.0484295681299
H 1.74861840764 2.13245218304 -0.10176082029
H 4.11942614547 0.193570184369 0.236463341738
H 4.17895254271 2.03554783154 0.109871090819
