10
46
C 0.0 0.0 0.0
C 1.41372116885 0.0 0.0
C 2.2393555351 1.18267546802 0.0
C 3.57874752312 1.13970501608 0.132856065311
H -0.184344852977 0.674902330525 0.882375795876
H -0.526839402638 -0.941321412555 -0.124134914425
H 1.95609012137 -0.946658054182 0.0603330494987
H 1.731388334 2.13119551019 -0.109918573112
H 4.11042930345 0.206651926568 0.255089021894
H 4.16725355914 2.04529508428 0.115600610352
