10
85
C 0.0 0.0 0.0
C 1.39519312591 0.0 0.0
C 2.202195723322724 1.1971657604616541 0.0
C 3.545984420603312 1.1731370966992518 0.16566695286251462
H 0.1710561643963979 -0.11718883483486417 1.1439243888334742
H -0.5204908451037722 -0.9146678801777696 -0.2762137827990866
H 1.989010648231238 -0.9163943592017925 0.0999576776769709
H 1.676008058373664 2.1263996817733144 -0.13635313739509106
H 4.079802147514727 0.24963844245358335 0.31554118946133636
H 4.12879287243139 2.0767897533493 0.13513363886051136
