10
89
C 0.0 0.0 0.0
C 1.39329281382 0.0 0.0
C 2.1983700626939497 1.1986354286832555 0.0
C 3.5425487149157386 1.1765840930000455 0.16905404466730567
H 0.2084419962713746 -0.20490895925086874 1.1290857379517776
H -0.5198362348839622 -0.9105308550883081 -0.2915740196995259
H 1.992227914257342 -0.9130693607954979 0.10409682153043406
H 1.6703821946633504 2.125847467307593 -0.13905684299579063
H 4.076539860621662 0.2540858103833973 0.32173297240203536
H 4.124808771917168 2.08000479980074 0.13721606420054255
