10
77
C 0.0 0.0 0.0
C 1.3989937501 0.0 0.0
C 2.20983904665 1.19421716867 0.0
C 3.5528134421 1.16625287192 0.158904753314
H 0.0965086484631 0.0607367216069 1.14943888747
H -0.521798127535 -0.922163253385 -0.245326617865
H 1.98248492504 -0.922921798792 0.0917193648566
H 1.68729025348 2.12747081752 -0.130941279118
H 4.08625883892 0.240764487602 0.303152470163
H 4.13673861069 2.07035141113 0.131012944824
