10
44
C 0.0 0.0 0.0
C 1.4146713249 0.0 0.0
C 2.241254255270769 1.1819245488371406 0.0
C 3.580392132898772 1.137999548510481 0.13118415926893898
H -0.2017656846716796 0.7054068948437335 0.8517892900829829
H -0.527163309819815 -0.9420150284910169 -0.1162650855733345
H 1.9543289230810426 -0.9481037153816918 0.058339182222572915
H 1.7342538724044352 2.1314122150550805 -0.10855966591936152
H 4.11194263335487 0.20446671040912878 0.2519854370125745
H 4.169207679979846 2.0436724565712674 0.11463653594949125
