10
60
C 0.0 0.0 0.0
C 1.40707007651 0.0 0.0
C 2.226045543263522 1.1879105912476131 0.0
C 3.567138741974543 1.151668448230895 0.1445890632293007
H -0.059668382171716786 0.4239823819035461 1.0556550186205373
H -0.5245675140794919 -0.9346226143716271 -0.17909440060517284
H 1.9682236795659134 -0.9362466141262553 0.07439794529264997
H 1.7113988300346439 2.1295980035785274 -0.1194223995402311
H 4.099680121357818 0.22200225619530112 0.27680546149725893
H 4.153525790243305 2.0566325085545585 0.1224517913471099
