10
93
C 0.0 0.0 0.0
C 1.39139250172 0.0 0.0
C 2.1945417427096228 1.2001020053822349 0.0
C 3.5390988260338663 1.1800342900513638 0.17244509228918983
H 0.24584990197931253 -0.2907284245978831 1.1063666072376155
H -0.519180979040178 -0.9061353486762205 -0.30687286235802946
H 1.9954143881795505 -0.9097036595621486 0.10824895418375416
H 1.6647665264740685 2.125284221335896 -0.14175902446886465
H 4.0732548920739955 0.2585399831342461 0.327922961326944
H 4.1208171028441605 2.0832171329417486 0.13931321397297047
