10
58
C 0.0 0.0 0.0
C 1.40802023256 0.0 0.0
C 2.227948996829028 1.1871650040872257 0.0
C 3.568807516003025 1.1499567252601652 0.1429097681444637
H -0.07774079023975057 0.46331763865787284 1.035742765639089
H -0.5248925555947095 -0.9357769468622674 -0.1712607677793797
H 1.9665114607069136 -0.9377651501941875 0.07237733429849537
H 1.7142470242224355 2.1298348091439046 -0.1180656509087048
H 4.101232458277897 0.21980366425142528 0.27370409034232646
H 4.15549219258934 2.055015096537707 0.12146204494347689
