10
8
C 0.0 0.0 0.0
C 1.43177413377 0.0 0.0
C 2.27531458682 1.16827875884 0.0
C 3.60941341191 1.10746191989 0.101276178773
H -0.492488002237 0.956898832358 0.176270661577
H -0.532965872674 -0.94325175362 0.0253643523889
H 1.92149598271 -0.972328547632 0.0231523751877
H 1.78625049615 2.13481193095 -0.0840531380586
H 4.13823910221 0.165477922745 0.196078669749
H 4.20409362446 2.014331224 0.0979084351798
