10
78
C 0.0 0.0 0.0
C 1.39851867208 0.0 0.0
C 2.20888421541 1.19458641654 0.0
C 3.55196289731 1.1671126795 0.159749148609
H 0.10580288564 0.0384777307016 1.15052148623
H -0.521634858609 -0.921283258428 -0.249198789233
H 1.98330723004 -0.922114827308 0.0927461887533
H 1.68587776351 2.12733936312 -0.131618079384
H 4.085456694 0.241872198311 0.304701424414
H 4.13574701922 2.07115681094 0.131524812763
