10
8
C 0.0 0.0 0.0
C 1.43177413377 0.0 0.0
C 2.2753145868237024 1.168278758836875 0.0
C 3.609413411909875 1.1074619198939004 0.10127617877267697
H -0.4924880022368522 0.9568988323578528 0.17627066157736718
H -0.532965872674249 -0.9432517536198298 0.025364352388910334
H 1.9214959827073093 -0.9723285476323252 0.02315237518769523
H 1.786250496150169 2.134811930946795 -0.08405313805855923
H 4.138239102210682 0.16547792274467366 0.19607866974862165
H 4.204093624464786 2.014331224000366 0.09790843517981104
