10
12
C 0.0 0.0 0.0
C 1.42987382167 0.0 0.0
C 2.27154107304 1.16980699515 0.0
C 3.60624277615 1.11083951705 0.104581537227
H -0.46267532721 0.958424330022 0.254559225708
H -0.53232374456 -0.944163690591 0.00968013186996
H 1.92524631766 -0.969805866091 0.0269935921116
H 1.78043446319 2.13448159892 -0.0867800491043
H 4.13540501774 0.169776723158 0.202293835228
H 4.20024374395 2.01760426367 0.0997087314683
