10
47
C 0.0 0.0 0.0
C 1.41324609083 0.0 0.0
C 2.2384059207311533 1.1830506426831997 0.0
C 3.577923929864094 1.1405580907488364 0.13369241837949183
H -0.17559430205213514 0.6590935880859426 0.8971806451790785
H -0.5266773882470283 -0.9409499022153587 -0.1280685457855381
H 1.9569681428599583 -0.9459313065258157 0.0613314518119463
H 1.7299564891843788 2.131086073736062 -0.11059791574868914
H 4.109670555443043 0.2077452644147022 0.25664070422595703
H 4.166275849399447 2.046106114114809 0.11608402161473395
