10
30
C 0.0 0.0 0.0
C 1.42132241724 0.0 0.0
C 2.25452626089 1.17664688875 0.0
C 3.59180861457 1.12608711485 0.119510967524
H -0.320379464639 0.873208349628 0.607818877767
H -0.529426117029 -0.94502602493 -0.0611242730873
H 1.94181119328 -0.957930054989 0.0444941502703
H 1.75438133846 2.13284773188 -0.0990393446078
H 4.12238085972 0.189225572996 0.230252690867
H 4.18283860782 2.03229254696 0.107990523312
