10
77
C 0.0 0.0 0.0
C 1.3989937501 0.0 0.0
C 2.209839046647955 1.1942171686703935 0.0
C 3.552813442101959 1.1662528719243568 0.15890475331413914
H 0.09650864846314978 0.060736721606907434 1.1494388874716814
H -0.521798127534955 -0.9221632533850509 -0.2453266178646299
H 1.9824849250377397 -0.9229217987916016 0.09171936485656226
H 1.6872902534778156 2.1274708175227435 -0.1309412791184744
H 4.086258838916452 0.24076448760227354 0.30315247016275204
H 4.136738610691367 2.070351411132549 0.13101294482424142
