10
54
C 0.0 0.0 0.0
C 1.40992054466 0.0 0.0
C 2.231753880256548 1.1856715397383537 0.0
C 3.572134666783861 1.1465359207621648 0.13955431627726522
H -0.11364208042759896 0.5388117532817508 0.990828142381787
H -0.5255421527613905 -0.9378883623749434 -0.15557357011589903
H 1.9630657214676077 -0.9407710802905401 0.06834733068861915
H 1.7199508777573984 2.1302998542166667 -0.11535119704567715
H 4.10432037054357 0.21541212312767133 0.2675003420729924
H 4.159419675724436 2.0517780675580997 0.11949356223566877
