10
92
C 0.0 0.0 0.0
C 1.39186757974 0.0 0.0
C 2.1954990717592313 1.1997356512961914 0.0
C 3.5399626301145743 1.1791714429690474 0.17159696112683295
H 0.23649802978685164 -0.2694949348645002 1.1127737057901659
H -0.5193448535218588 -0.9072584099096307 -0.3030541459777352
H 1.994620672538688 -0.9105488945014255 0.10720971715095476
H 1.6661694860958571 2.1254260643060996 -0.14108362369693464
H 4.074078262810291 0.25742580697762063 0.3263756354138644
H 4.121815733026142 2.082414302523775 0.1387875458995032
