10
98
C 0.0 0.0 0.0
C 1.3890171116 0.0 0.0
C 2.18975261053 1.20193087152 0.0
C 3.53476645923 1.18435147398 0.176689420182
H 0.292580137152 -0.394141073153 1.06725287604
H -0.51836100175 -0.900278855206 -0.325903441282
H 1.99935373153 -0.905439470821 0.113456999363
H 1.65776132336 2.12456472676 -0.145134560385
H 4.06911672424 0.264117128421 0.335657837745
H 4.11581677995 2.08722877476 0.141955362959
