10
61
C 0.0 0.0 0.0
C 1.40659499849 0.0 0.0
C 2.22509356379 1.1882830983 0.0
C 3.56630305307 1.15252463773 0.145429101504
H -0.0506037318446 0.403954637671 1.06495112982
H -0.524404932595 -0.934020807993 -0.183008483893
H 1.96907710944 -0.93548345847 0.0754096396999
H 1.70997566784 2.12947853271 -0.120100652545
H 4.09890185534 0.223102252602 0.278356018214
H 4.15254192068 2.0574409406 0.122948041229
