10
79
C 0.0 0.0 0.0
C 1.39804359406 0.0 0.0
C 2.207929217099672 1.1949554720321791 0.0
C 3.551111472932274 1.167972694273507 0.16059379612035596
H 0.11510525575569282 0.01619852992650923 1.1510979395531222
H -0.5214715492659456 -0.9203869770643386 -0.2530678761004013
H 1.9841276616723222 -0.9213052928620538 0.09377386769483308
H 1.684465905584637 2.1272072107166853 -0.13229478977796094
H 4.08465313853136 0.24298035012675145 0.30625027632256463
H 4.134754965072624 2.071962036496036 0.13203760019109934
