10
73
C 0.0 0.0 0.0
C 1.4008940622 0.0 0.0
C 2.21365669952 1.19273825468 0.0
C 3.55620683825 1.16281572548 0.155529703631
H 0.0594251215316 0.149317393362 1.14006828203
H -0.522450799194 -0.925520169991 -0.229808460718
H 1.97917706488 -0.926124022352 0.0876206975472
H 1.69294652483 2.12798963977 -0.128233189125
H 4.08945332588 0.236338083168 0.296955648098
H 4.14070036929 2.06712805953 0.128974666635
