10
88
C 0.0 0.0 0.0
C 1.39376789184 0.0 0.0
C 2.19932672736 1.19826830127 0.0
C 3.54340896946 1.17572204222 0.168206899727
H 0.199091918807 -0.183126065469 1.13354157431
H -0.519999947989 -0.911589377544 -0.287739545664
H 1.99142647297 -0.913904430755 0.103060807982
H 1.67178770592 2.12598655707 -0.138381058263
H 4.07735755716 0.252973326847 0.320185192639
H 4.12580550423 2.0792012936 0.136694077614
