10
23
C 0.0 0.0 0.0
C 1.42464796341 0.0 0.0
C 2.26114972899 1.1739941724 0.0
C 3.5974543634 1.12014819223 0.113694405196
H -0.377211832873 0.924383107881 0.472544717966
H -0.530554536858 -0.94532228286 -0.0335585601177
H 1.93543086539 -0.962650066908 0.037647255761
H 1.76448986281 2.13351163829 -0.0942742315515
H 4.12749860557 0.181642123637 0.219381800767
H 4.18962312406 2.02658819059 0.104734702402
