10
36
C 0.0 0.0 0.0
C 1.41847194909 0.0 0.0
C 2.248842343587822 1.178913285348773 0.0
C 3.586936310330392 1.1311868584483902 0.12450726796929865
H -0.27030063855961944 0.811556860217683 0.7179112015544927
H -0.5284573163657599 -0.9441307284130068 -0.08476167802247576
H 1.9472161129519334 -0.9537817145286486 0.050403428256879254
H 1.7457406018281891 2.1322500169834218 -0.10312115085826398
H 4.117940509022997 0.19574551195071277 0.2395682930220099
H 4.177006978618105 2.0371743012489625 0.11081686012346888
