10
67
C 0.0 0.0 0.0
C 1.40374453035 0.0 0.0
C 2.219378153929677 1.1905141246794704 0.0
C 3.5612706526486466 1.157666327865576 0.1504747730242776
H 0.004146075944044907 0.27944710808397843 1.1111176713638493
H -0.5234285939452905 -0.930065356003775 -0.20645037308508987
H 1.974159872903877 -0.9308501916581382 0.08149900933157721
H 1.7014498135239697 2.12874680237447 -0.12416844137146615
H 4.0942028504202765 0.22971194870039036 0.28765749772080784
H 4.146629287535839 2.062287726755167 0.12594482034734905
