10
49
C 0.0 0.0 0.0
C 1.41229593478 0.0 0.0
C 2.23650618375 1.1838004218 0.0
C 3.57627416332 1.14226491899 0.13536592243
H -0.158015636576 0.626402672815 0.925765644914
H -0.526353237853 -0.940157482678 -0.135932897161
H 1.95871900609 -0.944469983767 0.0633311749076
H 1.72709465086 2.13086503659 -0.111956376645
H 4.10814888983 0.209933392931 0.259743844264
H 4.16431912667 2.04772760835 0.117053592981
