10
99
C 0.0 0.0 0.0
C 1.38854203357 0.0 0.0
C 2.18879428725 1.20229606337 0.0
C 3.53389731226 1.1852154959 0.177539016972
H 0.301915976207 -0.414190616089 1.05805033109
H -0.518196885329 -0.899059426627 -0.329696481351
H 2.00013572131 -0.904579043229 0.114500952588
H 1.65636220493 2.12441877736 -0.145809370578
H 4.06828482353 0.265233800336 0.337204456162
H 4.11481527424 2.08803060399 0.14248655483
