10
72
C 0.0 0.0 0.0
C 1.40136914022 0.0 0.0
C 2.2146106942994135 1.192368045967225 0.0
C 3.5570529946525054 1.1619569630916415 0.1546865763316122
H 0.05018060465713927 0.17128581703757073 1.136473796719656
H -0.5226138660730324 -0.9263185860977116 -0.22592189712731353
H 1.9783454633470074 -0.9269181544274644 0.08659820727819183
H 1.6943621681096666 2.128117592638704 -0.12755594687015068
H 4.090248427703043 0.2352325988528272 0.29540619576292376
H 4.141689661740212 2.0663217814023156 0.1284673950535641
