10
88
C 0.0 0.0 0.0
C 1.39376789184 0.0 0.0
C 2.1993267273647805 1.1982683012690072 0.0
C 3.543408969460141 1.1757220422173909 0.16820689972651692
H 0.19909191880675 -0.18312606546927082 1.1335415743106059
H -0.5199999479894637 -0.9115893775436734 -0.287739545663807
H 1.9914264729681315 -0.9139044307549109 0.10306080798202474
H 1.6717877059249568 2.125986557069548 -0.13838105826265157
H 4.077357557161198 0.25297332684689156 0.32018519263900114
H 4.12580550422577 2.0792012936026127 0.13669407761384814
