10
86
C 0.0 0.0 0.0
C 1.39471804789 0.0 0.0
C 2.20123955775 1.19753346709 0.0
C 3.54512682167 1.17399854345 0.166513353368
H 0.180398384706 -0.139253462549 1.14096327286
H -0.520327253101 -0.913657903002 -0.280059358924
H 1.98981783535 -0.915566931706 0.100991232112
H 1.67460063822 2.12626266508 -0.137029204965
H 4.07898869999 0.250749641491 0.317089300276
H 4.12779755352 2.07759377083 0.135652864999
