10
75
C 0.0 0.0 0.0
C 1.39994390615 0.0 0.0
C 2.21174820767 1.19347809601 0.0
C 3.55451189554 1.16453388059 0.157216721293
H 0.0779469944873 0.105143359732 1.14575883613
H -0.522124544188 -0.923874343657 -0.237573296213
H 1.98083471358 -0.924528046355 0.0896682977453
H 1.69011712784 2.12773162926 -0.129587410933
H 4.08785889961 0.238550394767 0.300054258396
H 4.13872040964 2.0687400866 0.129991967199
