10
94
C 0.0 0.0 0.0
C 1.39091742369 0.0 0.0
C 2.1935842477544907 1.2004681659576297 0.0
C 3.538234133009408 1.1808973345667397 0.1732934688861649
H 0.2552006659827754 -0.31179410275836095 1.0994813190105575
H -0.5190170642409007 -0.904996188269957 -0.31068746913826256
H 1.9962061609023634 -0.9088558879034963 0.10928898716488866
H 1.6633642059033649 2.125141692019293 -0.1424343280289622
H 4.0724301012043815 0.2596545788236422 0.3294701715861165
H 4.119817995814279 2.08401979543755 0.13983980256235523
