10
97
C 0.0 0.0 0.0
C 1.38949218962 0.0 0.0
C 2.1907107683087004 1.2015654857786118 0.0
C 3.5356347141827578 1.1834876462321535 0.17584006653220846
H 0.2832400593632414 -0.37386513658879716 1.0760028342832366
H -0.5185250778429876 -0.9014822614670515 -0.3221059522227219
H 1.9985697760142838 -0.9062973709741855 0.11241382224035251
H 1.6591610831540395 2.1247099936976466 -0.14445965057162313
H 4.069947201774904 0.2630008688874854 0.3341110992119791
H 4.116817804012206 2.086426779708663 0.14142509183530938
