10
30
C 0.0 0.0 0.0
C 1.42132241724 0.0 0.0
C 2.2545262608859984 1.1766468887545984 0.0
C 3.5918086145671384 1.126087114847838 0.119510967524268
H -0.3203794646387701 0.8732083496283075 0.607818877767368
H -0.5294261170288491 -0.9450260249297447 -0.06112427308725261
H 1.941811193283336 -0.9579300549890967 0.04449415027030819
H 1.754381338458429 2.132847731879812 -0.09903934460783743
H 4.122380859716887 0.18922557299574116 0.2302526908670534
H 4.182838607816873 2.032292546960547 0.10799052331160414
