10
56
C 0.0 0.0 0.0
C 1.40897038861 0.0 0.0
C 2.22985177604 1.18641865337 0.0
C 3.57047282257 1.14824588109 0.141231517985
H -0.0957335351078 0.501621600048 1.01411481059
H -0.52521743517 -0.93686554079 -0.163420306849
H 1.96479212847 -0.939273309439 0.0703604525852
H 1.71709770814 2.13006876137 -0.116708582119
H 4.10277920617 0.217606949442 0.270602381507
H 4.15745681869 2.05339695075 0.120475968902
