10
38
C 0.0 0.0 0.0
C 1.41752179304 0.0 0.0
C 2.24694634158 1.17966723801 0.0
C 3.58530539482 1.13288864426 0.126174873823
H -0.253347576626 0.78750180677 0.752941782188
H -0.528134058126 -0.943700611293 -0.0926400398586
H 1.94900443923 -0.952377932011 0.0523813495707
H 1.74286524131 2.13204493116 -0.104481204683
H 4.1164493453 0.197922839409 0.24267298538
H 4.17505971742 2.03879999461 0.11176628811
