10
14
C 0.0 0.0 0.0
C 1.42892366562 0.0 0.0
C 2.2696532834450656 1.1705699894105364 0.0
C 3.6046524400909616 1.1125298011452056 0.10623590657293283
H -0.4475080715607813 0.9564410902838286 0.2941104745054062
H -0.5320024364006269 -0.9445216789463886 0.00182900565959782
H 1.9271122039058821 -0.9685286221278051 0.028920834149574443
H 1.777530036315608 2.134311943469698 -0.08814316281603538
H 4.133979794188042 0.17192932596924881 0.2054011621472318
H 4.19831638645328 2.0192395425416976 0.10061434214402427
