10
16
C 0.0 0.0 0.0
C 1.42797350957 0.0 0.0
C 2.26776480618 1.17133223359 0.0
C 3.60305875149 1.11422106947 0.10789139806
H -0.432171500887 0.952600764508 0.333809125483
H -0.531680965549 -0.944814255369 -0.0060274043841
H 1.92897184841 -0.967240786336 0.0308524601121
H 1.77462800825 2.1341393029 -0.0895060433323
H 4.13254910838 0.17408404941 0.208508308947
H 4.19638740839 2.0208739998 0.101523596513
