10
2
C 0.0 0.0 0.0
C 1.43462460191 0.0 0.0
C 2.2809696850456147 1.1659807941801035 0.0
C 3.614144354771913 1.1024030204405761 0.09632664320211674
H -0.5358518751933863 0.9413034604939656 0.06222433082467198
H -0.5339278438165659 -0.9413951000347258 0.04883744744870186
H 1.9158246866836952 -0.9760329424887351 0.01742414820958977
H 1.7949924283210332 2.1352848938530045 -0.0799611219644685
H 4.142449414218002 0.15904589776732359 0.18675474990601443
H 4.209856460771601 2.0094153954412612 0.09523527955771217
