10
80
C 0.0 0.0 0.0
C 1.39756851603 0.0 0.0
C 2.20697405181897 1.1953243350470153 0.0
C 3.5502591683710527 1.1688329155087387 0.1614386954374545
H 0.1244151515747426 -0.006088170798020442 1.1511677701675238
H -0.5213081995444967 -0.9194744197378835 -0.2569338098472514
H 1.9849462151808117 -0.9204931971796066 0.09480239773672675
H 1.6830546802642425 2.127074361105386 -0.13297140982524064
H 4.083848171840897 0.24408894149459914 0.3077990250719328
H 4.133762447377153 2.072767088138165 0.1325513072273724
