10
87
C 0.0 0.0 0.0
C 1.39424296986 0.0 0.0
C 2.20028322575 1.19790098071 0.0
C 3.54426833818 1.17486019213 0.167360002462
H 0.189743842045 -0.161236729386 1.13750159906
H -0.520163620717 -0.912631731205 -0.283901302651
H 1.99062311179 -0.914736954983 0.102025610206
H 1.67319385394 2.12612495659 -0.137705178746
H 4.07817383674 0.251861270037 0.31863730161
H 4.12680176447 2.07839761739 0.13617301123
