10
18
C 0.0 0.0 0.0
C 1.42702335353 0.0 0.0
C 2.26587564185 1.17209372706 0.0
C 3.60146170502 1.11591331736 0.109548008233
H -0.416669159891 0.946889688426 0.373560750999
H -0.531359332039 -0.945041356675 -0.0138885521957
H 1.93082521062 -0.96594236668 0.0327884410546
H 1.77172838334 2.13396368311 -0.0908686867133
H 4.13111295426 0.17624088254 0.211615268457
H 4.19445680289 2.02250763966 0.102436496088
