10
51
C 0.0 0.0 0.0
C 1.41134577873 0.0 0.0
C 2.23460576964 1.18454944013 0.0
C 3.57462095244 1.14397264825 0.137040487395
H -0.140337191984 0.592336156329 0.952922915124
H -0.526028925354 -0.939299209182 -0.143792906392
H 1.96046293049 -0.942998233412 0.065334764116
H 1.72423528426 2.13064111883 -0.113314535106
H 4.10662166009 0.212123449104 0.262846678792
H 4.16236066029 2.04934835181 0.118026830333
