10
52
C 0.0 0.0 0.0
C 1.41087070071 0.0 0.0
C 2.233655308877878 1.1849236637778193 0.0
C 3.5737930537910376 1.1448268492022753 0.13787816659957564
H -0.1314619267123314 0.574808839331808 0.9659439129949096
H -0.5258667083393262 -0.9388453824957775 -0.14772111004048666
H 1.9613322784175171 -0.9422584513418886 0.06633799907533075
H 1.722806529168638 2.130528081584461 -0.1139934996750957
H 4.105855956939359 0.2132191965209459 0.2643979792341937
H 4.161380771032332 2.0501584431495083 0.11851482404756111
