10
18
C 0.0 0.0 0.0
C 1.42702335353 0.0 0.0
C 2.2658756418456676 1.172093727061192 0.0
C 3.6014617050243727 1.1159133173566915 0.10954800823321424
H -0.41666915989080006 0.9468896884257864 0.37356075099931196
H -0.531359332039319 -0.9450413566748104 -0.013888552195688283
H 1.9308252106151256 -0.9659423666795368 0.03278844105461602
H 1.7717283833398993 2.133963683106405 -0.09086868671331512
H 4.131112954257735 0.17624088254039083 0.21161526845704776
H 4.194456802891165 2.0225076396567743 0.10243649608836312
