10
33
C 0.0 0.0 0.0
C 1.41989718316 0.0 0.0
C 2.2516850694402275 1.1777809374692692 0.0
C 3.589376290473196 1.128635929570487 0.12200789250413542
H -0.2954901686421226 0.8443867935705089 0.6637169325859706
H -0.5289418993760052 -0.9446524316700304 -0.07294289386072063
H 1.9445211047755797 -0.9558677076198019 0.047444170312606365
H 1.7500582262224502 2.1325521692834126 -0.10108055242804238
H 4.120166892764176 0.19248327395654896 0.2349107711866652
H 4.1799246905619984 2.0347343042731847 0.10939957777840856
