10
73
C 0.0 0.0 0.0
C 1.4008940622 0.0 0.0
C 2.21365669951821 1.1927382546835699 0.0
C 3.5562068382529652 1.162815725480137 0.1555297036314502
H 0.0594251215315844 0.14931739336174915 1.1400682820323385
H -0.5224507991939424 -0.9255201699905122 -0.22980846071752822
H 1.9791770648795977 -0.926124022352409 0.08762069754717342
H 1.6929465248284772 2.127989639767648 -0.1282331891252089
H 4.0894533258778605 0.23633808316773486 0.29695564809756325
H 4.140700369292489 2.067128059526208 0.1289746666348921
