10
87
C 0.0 0.0 0.0
C 1.39424296986 0.0 0.0
C 2.200283225747469 1.1979009807097634 0.0
C 3.544268338178089 1.1748601921316006 0.16736000246223853
H 0.1897438420445669 -0.16123672938633024 1.1375015990551332
H -0.5201636207173337 -0.9126317312053731 -0.28390130265091973
H 1.9906231117906756 -0.9147369549833371 0.10202561020623949
H 1.6731938539387423 2.1261249565945572 -0.13770517874592492
H 4.078173836735384 0.25186127003701597 0.3186373016095147
H 4.12680176446873 2.078397617391005 0.13617301123018252
