10
16
C 0.0 0.0 0.0
C 1.42797350957 0.0 0.0
C 2.2677648061793905 1.1713322335902443 0.0
C 3.603058751486725 1.1142210694653474 0.10789139805956244
H -0.43217150088748074 0.9526007645082871 0.33380912548268526
H -0.5316809655491616 -0.9448142553694057 -0.006027404384098939
H 1.9289718484063365 -0.9672407863360828 0.030852460112066205
H 1.7746280082485333 2.13413930290451 -0.08950604333229312
H 4.132549108384135 0.17408404940993016 0.20850830894732125
H 4.196387408386238 2.020873999799571 0.10152359651332216
