10
64
C 0.0 0.0 0.0
C 1.40516976442 0.0 0.0
C 2.22223661547 1.18939947252 0.0
C 3.56379077102 1.15509451089 0.147950773819
H -0.0233028992463 0.34256294578 1.09012632469
H -0.523916945352 -0.932116892002 -0.194738973204
H 1.97162662327 -0.933178458744 0.0784502326261
H 1.70570992654 2.12911585692 -0.122134920464
H 4.09655865879 0.226405026784 0.28300716204
H 4.14958762726 2.05986514652 0.124442298726
