10
21
C 0.0 0.0 0.0
C 1.42559811945 0.0 0.0
C 2.2630406083772385 1.1732345583796777 0.0
C 3.5990598277170855 1.1184535157579691 0.11203501345289674
H -0.39311272221604576 0.9347978612107203 0.4330788645600469
H -0.5308765768669629 -0.9452591157965958 -0.02568796114870998
H 1.933593385969452 -0.963974910282047 0.03570051453074504
H 1.767383461190477 2.1336946803038144 -0.09291219842184123
H 4.128948456772453 0.17948006404882222 0.21627534085003453
H 4.191557828188408 2.0249565759737727 0.10381268343325839
