10
85
C 0.0 0.0 0.0
C 1.39519312591 0.0 0.0
C 2.20219572332 1.19716576046 0.0
C 3.5459844206 1.1731370967 0.165666952863
H 0.171056164396 -0.117188834835 1.14392438883
H -0.520490845104 -0.914667880178 -0.276213782799
H 1.98901064823 -0.916394359202 0.099957677677
H 1.67600805837 2.12639968177 -0.136353137395
H 4.07980214751 0.249638442454 0.315541189461
H 4.12879287243 2.07678975335 0.135133638861
