10
19
C 0.0 0.0 0.0
C 1.4265482755 0.0 0.0
C 2.2649308021995775 1.1724741921067936 0.0
C 3.600661920922315 1.1167598071978326 0.110376731738088
H -0.40885694875656564 0.9433297164719544 0.3934266733931599
H -0.5311984543062532 -0.9451303356569812 -0.017820731946612222
H 1.93174952317744 -0.9652891904311025 0.03375805556706741
H 1.7702794733731835 2.1338747578595156 -0.09154991820738666
H 4.1303928246682045 0.17732008683690126 0.21316867571909798
H 4.193490887712198 2.0233241543601004 0.10289431329990786
