10
23
C 0.0 0.0 0.0
C 1.42075674445 0.0 0.0
C 2.3224946941220166 1.1230645304223799 0.0
C 3.611271466542551 1.060097284679597 0.3692106729924099
H -0.5650367763566894 0.9142341878953404 0.13932554147557025
H -0.5429298104551336 -0.9363154783297327 -0.04757058328108311
H 1.8269936611892668 -0.95858138721384 0.39562305296865163
H 1.9129140820219397 2.069355095473012 -0.3399527850096268
H 4.067307229322347 0.14093316416556678 0.7153469188952171
H 4.236787361445651 1.9427935286662101 0.33168749768833244
