10
73
C 0.0 0.0 0.0
C 1.38854367161 0.0 0.0
C 2.401295435449341 1.0228081202824824 0.0
C 3.4537746780732244 1.125945137090355 0.8415393530280857
H -0.5974409308537811 0.8270029464022459 0.36998693516594966
H -0.5616514862857342 -0.8875591228732042 -0.26666781357453806
H 1.3060020912016488 -0.5552661543673002 1.0258286592426866
H 2.307209168292054 1.7377776735324244 -0.8064261731910146
H 3.610115155283861 0.4311178912710977 1.6506360526418753
H 4.180192120113954 1.9098701382098766 0.7143702778503187
