10
47
C 0.0 0.0 0.0
C 1.40529446949 0.0 0.0
C 2.361627541910724 1.0763748566744191 0.0
C 3.555219439864865 1.0657120423974373 0.6233610854603285
H -0.5806662435618382 0.880097647777249 0.2536143199265065
H -0.551942401634529 -0.9195074589784448 -0.15452314987899265
H 1.6213898924098349 -0.8269737237022983 0.7550132537887784
H 2.0829141018224684 1.9426701630044616 -0.5887185908593263
H 3.886832038010042 0.22460922363807334 1.2150042370022134
H 4.223259569012721 1.9097731820714072 0.5417890271281692
