10
57
C 0.0 0.0 0.0
C 1.39885185492 0.0 0.0
C 2.37722850819 1.05613180584 0.0
C 3.52006051881 1.08249678863 0.715303662737
H -0.58713769219 0.86159137503 0.299410413234
H -0.555683434259 -0.908879850408 -0.19820622079
H 1.50846844481 -0.737405577184 0.877696313358
H 2.1653982328 1.87200737673 -0.680093494282
H 3.78817778125 0.290202440954 1.39771900947
H 4.20919693492 1.90578599283 0.615452131662
