10
13
C 0.0 0.0 0.0
C 1.42719935902 0.0 0.0
C 2.3055092098110315 1.1417082850114781 0.0
C 3.6198918462566545 1.0723554938748507 0.2525358747751785
H -0.5584844804898184 0.9240154601764986 0.09023225595617064
H -0.5391605014448759 -0.9396287069335096 -0.0023875497164856474
H 1.8791620114621124 -0.9788540793072809 0.2309437435415181
H 1.8564891894694164 2.1044825761891905 -0.22787486735814025
H 4.113561320461821 0.13669128171535272 0.4883872621649027
H 4.231258946935006 1.9669739855084583 0.23214653632573976
