10
79
C 0.0 0.0 0.0
C 1.38467810287 0.0 0.0
C 2.410030191020768 1.0100215191693325 0.0
C 3.426662937706652 1.1471228210422946 0.8816170372713852
H -0.6012882104443009 0.8125128892871236 0.39550774202805206
H -0.5638838787296383 -0.8782229551136095 -0.29181686364106746
H 1.2259015238639916 -0.47614042815612256 1.0635781462730622
H 2.362534570978071 1.6810621888263408 -0.8466377637902328
H 3.53875141361836 0.49470640199233185 1.7315369292080622
H 4.167999412950445 1.9143198918525592 0.7451831640377975
