10
86
C 0.0 0.0 0.0
C 1.38016827268 0.0 0.0
C 2.42001661747 0.994907822799 0.0
C 3.3940597797 1.17489348846 0.923034794386
H -0.605765231716 0.79460096202 0.424576695186
H -0.566484430901 -0.866426382147 -0.320753493946
H 1.13138135505 -0.377616081073 1.09408052144
H 2.42793249009 1.61079089256 -0.88814108373
H 3.45348737299 0.575742158444 1.81553516984
H 4.15331491693 1.92123501573 0.776687843631
