10
17
C 0.0 0.0 0.0
C 1.42462231319 0.0 0.0
C 2.3123502241561162 1.1343089778489492 0.0
C 3.617613966467527 1.0664344920976403 0.299801752479203
H -0.5611081844708605 0.9204232502601785 0.10995616219038434
H -0.5406692104156966 -0.9385664441577792 -0.020491754524114333
H 1.860881083845915 -0.9730920798324179 0.2972649135242174
H 1.8779260271734213 2.091645057118724 -0.27310669669560134
H 4.097341258698831 0.13627164165108296 0.5801532531568219
H 4.234387706185461 1.9565493607772835 0.2727049428130416
