10
66
C 0.0 0.0 0.0
C 1.39305350181 0.0 0.0
C 2.3909034845 1.03752699986 0.0
C 3.48403162709 1.10452119494 0.789662401729
H -0.592941063907 0.842872692281 0.339543901912
H -0.559043140951 -0.897532806805 -0.236952577136
H 1.3971236888 -0.640457070512 0.969071083179
H 2.24394990357 1.79962612614 -0.754417156068
H 3.69056611537 0.364187864185 1.54637935593
H 4.19365222202 1.90660670007 0.674047507297
