10
89
C 0.0 0.0 0.0
C 1.3782354883 0.0 0.0
C 2.42422851354 0.988366664557 0.0
C 3.37987099899 1.18774045106 0.938974300348
H -0.607680147606 0.786600294384 0.436792922522
H -0.567597660886 -0.861076502836 -0.333014148051
H 1.09085590699 -0.333615189472 1.10251095869
H 2.45612536835 1.57938762601 -0.904069389602
H 3.41649501589 0.612607820239 1.84798901906
H 4.14694763666 1.92470971203 0.788712541051
