10
5
C 0.0 0.0 0.0
C 1.43235345068 0.0 0.0
C 2.29164280355 1.15627178611 0.0
C 3.61948840402 1.08818852345 0.156041187619
H -0.553226024389 0.929905021911 0.0504808462696
H -0.536139159498 -0.940696581263 0.0339139064872
H 1.90506627729 -0.981404488124 0.0979576259228
H 1.81837792965 2.1254359199 -0.136288635628
H 4.13638022446 0.145790406294 0.301787849166
H 4.22103436239 1.99083504363 0.148347694325
