10
29
C 0.0 0.0 0.0
C 1.41689117571 0.0 0.0
C 2.33249678533 1.11164707922 0.0
C 3.6016175219 1.05684787535 0.436559962854
H -0.568956948645 0.907094290817 0.168407013315
H -0.545187442684 -0.933279057143 -0.0745359493265
H 1.78564114299 -0.936822977374 0.491658019489
H 1.95112887767 2.04335628852 -0.40528125985
H 4.03078953883 0.152044667675 0.847033202746
H 4.23663887625 1.93127894175 0.388265985378
