10
42
C 0.0 0.0 0.0
C 1.40851577677 0.0 0.0
C 2.35366939965 1.0863243928 0.0
C 3.5704878971 1.06046269169 0.574028203449
H -0.577421435635 0.88842261444 0.230281130589
H -0.550068735587 -0.924028945481 -0.132462791379
H 1.67253998116 -0.864206448652 0.686590260477
H 2.04395740709 1.97406999009 -0.539970444965
H 3.93154080841 0.198542436007 1.11742013411
H 4.22869502954 1.91383990459 0.501737966941
