10
50
C 0.0 0.0 0.0
C 1.40336168512 0.0 0.0
C 2.3663522416675393 1.0703498519010932 0.0
C 3.545283153582888 1.0698757150243479 0.6519162695930674
H -0.5826102306302194 0.8748035586614484 0.2674787623134113
H -0.5530655950434018 -0.9165400866707326 -0.1676922082153317
H 1.5889074816995576 -0.8021903049005845 0.7939250573311433
H 2.1070550761335873 1.9225670524479126 -0.6170276906966289
H 3.8584603613282913 0.2424150510062173 1.2716297426396062
H 4.219456692511139 1.908008378245587 0.5648056443956009
