10
59
C 0.0 0.0 0.0
C 1.39756333201 0.0 0.0
C 2.380297609003215 1.0520287607809145 0.0
C 3.5123765774429088 1.0868368158068273 0.7325427774753476
H -0.5884290531293012 0.8575983070024153 0.30842129346705605
H -0.55643062876744 -0.9065031428649145 -0.2068658792866494
H 1.4844175932115422 -0.7171537875507171 0.8996728661014549
H 2.1825384223958877 1.8566321719580987 -0.6972945897304985
H 3.7671374388594603 0.3054396970236992 1.432108838823078
H 4.2059485840806 1.9056216077263046 0.6291170840539432
