10
39
C 0.0 0.0 0.0
C 1.41044856114 0.0 0.0
C 2.34884474926 1.0922384479 0.0
C 3.57881875116 1.05833686106 0.543435377042
H -0.57547166747 0.893115342592 0.216151769121
H -0.548943532388 -0.926485981237 -0.119163960412
H 1.7013017227 -0.884074557533 0.643597753036
H 2.02140433008 1.99164254552 -0.509846199988
H 3.95671481775 0.185080480054 1.0570553132
H 4.23136592285 1.91697158225 0.476721339387
