10
75
C 0.0 0.0 0.0
C 1.3872551487 0.0 0.0
C 2.40422483458 1.01856328753 0.0
C 3.44484227509 1.13272393427 0.855357877394
H -0.598724361172 0.822262840441 0.378554128309
H -0.562395959566 -0.884527271515 -0.275084934428
H 1.27945722314 -0.529483299172 1.03956492464
H 2.32555497087 1.71924432677 -0.820290983834
H 3.58654234714 0.451691183282 1.6784922266
H 4.17618285423 1.91119172575 0.725028970517
