10
11
C 0.0 0.0 0.0
C 1.42848788194 0.0 0.0
C 2.30206553379 1.14537864597 0.0
C 3.62042201111 1.07581877183 0.228639779336
H -0.557171243566 0.92565024703 0.0803305597243
H -0.538405655722 -0.940027926921 0.0066774753306
H 1.88698053001 -0.980594028979 0.197679975933
H 1.84635711886 2.11030501842 -0.205098521873
H 4.12048830068 0.137943265104 0.442084602727
H 4.22921087444 1.97256315222 0.211519774842
