10
58
C 0.0 0.0 0.0
C 1.39820759347 0.0 0.0
C 2.3787652046141394 1.0540825350700527 0.0
C 3.516243335882741 1.0846265738219398 0.7239730014255306
H -0.5877834952800065 0.8596068543017118 0.30392227568726177
H -0.5560570737939519 -0.9077018955646676 -0.20253944198522997
H 1.4964975226384054 -0.7273744275566885 0.8887988162294149
H 2.1739439563467235 1.8643709890143638 -0.6887412456621952
H 3.777707545487098 0.29773398759439285 1.415007791776834
H 4.207588915233249 1.9056783178110037 0.6223300082029514
