10
96
C 0.0 0.0 0.0
C 1.37372565811 0.0 0.0
C 2.4338958692930883 0.9729568457460197 0.0
C 3.3465154995478805 1.2197464064452175 0.9718338931756944
H -0.6121393370289626 0.7671958371902103 0.46471049212884225
H -0.5701921700505255 -0.8479172624088649 -0.3612753816208648
H 0.9970883128755704 -0.22754602767002896 1.111008485409091
H 2.522007891312646 1.5032939994383736 -0.9367318474512004
H 3.329646723835308 0.7032751692627004 1.9151773944419188
H 4.1321026216975625 1.9338607225087794 0.8133069399128949
