10
6
C 0.0 0.0 0.0
C 1.43170918922 0.0 0.0
C 2.293389418151581 1.154468595030684 0.0
C 3.6199121234720963 1.0859228024157093 0.16822702618388105
H -0.5538841327943795 0.9292638065054276 0.055469986975803715
H -0.5365171125726546 -0.9406403177655038 0.029370822785552295
H 1.9026150871057315 -0.9817184456218118 0.11454181563236975
H 1.8227852906709474 2.123154254986001 -0.14779722966467412
H 4.134249898147946 0.14406157381503581 0.32529755430685914
H 4.2226146350531355 1.9876334121274049 0.1590047885425469
