10
34
C 0.0 0.0 0.0
C 1.41366986843 0.0 0.0
C 2.3407215581623926 1.1020016803102102 0.0
C 3.591213722629297 1.0565134121373534 0.4908976125277759
H -0.57221727637649 0.9004268785105801 0.19239910545554162
H -0.5470665263651667 -0.9301520795548037 -0.09690388597921429
H 1.7457757830685094 -0.9130405375355641 0.5691248763807942
H 1.9852864902224228 2.0188165510428986 -0.4583105091800493
H 3.9957186640628626 0.16628650571571746 0.9536483260407427
H 4.234737332080448 1.9233721713773786 0.4334432245580404
