10
59
C 0.0 0.0 0.0
C 1.39756333201 0.0 0.0
C 2.380297609 1.05202876078 0.0
C 3.51237657744 1.08683681581 0.732542777475
H -0.588429053129 0.857598307002 0.308421293467
H -0.556430628767 -0.906503142865 -0.206865879287
H 1.48441759321 -0.717153787551 0.899672866101
H 2.1825384224 1.85663217196 -0.69729458973
H 3.76713743886 0.305439697024 1.43210883882
H 4.20594858408 1.90562160773 0.629117084054
