10
12
C 0.0 0.0 0.0
C 1.42784362048 0.0 0.0
C 2.30378929413 1.14354591327 0.0
C 3.62020845192 1.07404548258 0.240608530973
H -0.557827977176 0.924846335441 0.0852845956642
H -0.538783119471 -0.939839322127 0.00214397549464
H 1.88318225704 -0.979817878688 0.214316256966
H 1.85137364411 2.10744309013 -0.216498670867
H 4.11712480182 0.137231054538 0.465268401275
H 4.23027607397 1.96973717176 0.221861279597
