10
90
C 0.0 0.0 0.0
C 1.37759122685 0.0 0.0
C 2.4256233478193154 0.9861778335259239 0.0
C 3.375122104476266 1.19214244741259 0.9440418689662079
H -0.6083179428950127 0.783890923311065 0.44083190538750866
H -0.567968564786755 -0.8592543578883834 -0.33708157698869395
H 1.0773759804070409 -0.31873826159251045 1.1046885151534998
H 2.4655344221529374 1.5687548660293857 -0.9091246308395243
H 3.4041233801267796 0.6251690565763638 1.8583241059092352
H 4.1448222552389264 1.925930638715693 0.7925230629382853
