10
85
C 0.0 0.0 0.0
C 1.38081253413 0.0 0.0
C 2.418603550139167 0.9970797321488586 0.0
C 3.398765773209598 1.170733800410698 0.9174778248174037
H -0.6051264174665587 0.7972250321142735 0.42047190532550416
H -0.566113181700843 -0.8681706504487466 -0.31664746479958555
H 1.1449044108616278 -0.3920605657543424 1.0906435451683418
H 2.418551106968227 1.621090555553887 -0.8825802510859494
H 3.4657685863879517 0.5637319476017353 1.8042388074922346
H 4.155431287456635 1.9201419859185762 0.7724821720073678
