10
11
C 0.0 0.0 0.0
C 1.42848788194 0.0 0.0
C 2.3020655337913163 1.1453786459697617 0.0
C 3.6204220111101533 1.0758187718275378 0.22863977933597746
H -0.5571712435656715 0.925650247030193 0.08033055972432905
H -0.538405655722354 -0.9400279269213986 0.006677475330599763
H 1.8869805300071383 -0.98059402897904 0.19767997593318767
H 1.846357118858753 2.110305018423529 -0.20509852187266875
H 4.1204883006803135 0.1379432651035094 0.4420846027265456
H 4.229210874440713 1.9725631522164329 0.21151977484194395
