10
35
C 0.0 0.0 0.0
C 1.41302560697 0.0 0.0
C 2.3423543619048317 1.100058426454367 0.0
C 3.5888893177804237 1.0567056614919699 0.5015543003402101
H -0.572868630830215 0.8990158472608261 0.19716935777034203
H -0.5474420940290032 -0.9294618853524712 -0.10136494939002934
H 1.7372397306698504 -0.9076625711116221 0.5842786881982813
H 1.9923576521510444 2.0135929101597503 -0.46874336408542006
H 3.988223736638502 0.16968084942571782 0.9745972305417336
H 4.234176225951687 1.921972575143291 0.442253837696242
