10
51
C 0.0 0.0 0.0
C 1.40271742366 0.0 0.0
C 2.367918720292367 1.0683323557861304 0.0
C 3.541849460390215 1.0714309889871347 0.6612537798254317
H -0.5832577414309837 0.8729894529374865 0.2720768514851922
H -0.5534398247779834 -0.9155087458242058 -0.1720700855606205
H 1.5778007691105584 -0.7935270332788071 0.8065116618515035
H 2.1152223432672455 1.915656397239747 -0.6262988305769446
H 3.848759966880925 0.24870897951682647 1.290169394884078
H 4.218105439753481 1.9075302106716021 0.5723052547078923
