10
93
C 0.0 0.0 0.0
C 1.37565844248 0.0 0.0
C 2.42978033561 0.979586139464 0.0
C 3.36083545296 1.20569467484 0.958500682256
H -0.610229794208 0.775636798137 0.452848001637
H -0.56908075739 -0.85367210655 -0.349224196844
H 1.03708039155 -0.273531787726 1.10930180008
H 2.49377567813 1.53637503795 -0.923516538671
H 3.36692240613 0.663646219548 1.88786299795
H 4.13845006413 1.92977080646 0.803360707771
