10
35
C 0.0 0.0 0.0
C 1.41302560697 0.0 0.0
C 2.3423543619 1.10005842645 0.0
C 3.58888931778 1.05670566149 0.50155430034
H -0.57286863083 0.899015847261 0.19716935777
H -0.547442094029 -0.929461885352 -0.10136494939
H 1.73723973067 -0.907662571112 0.584278688198
H 1.99235765215 2.01359291016 -0.468743364085
H 3.98822373664 0.169680849426 0.974597230542
H 4.23417622595 1.92197257514 0.442253837696
