10
1
C 0.0 0.0 0.0
C 1.4349304965 0.0 0.0
C 2.28461871455 1.16343495723 0.0
C 3.61669280427 1.09805399776 0.107004116995
H -0.550591314218 0.93219689302 0.0304725671512
H -0.534626534317 -0.9407005494 0.0520973506685
H 1.91260500487 -0.97841635126 0.0319294663215
H 1.80179320909 2.13362195677 -0.0901493204702
H 4.14277953438 0.154357043947 0.20734353579
H 4.21381061817 2.00426330509 0.10524179749
