10
72
C 0.0 0.0 0.0
C 1.38918793307 0.0 0.0
C 2.399824087114196 1.0249239912603891 0.0
C 3.4581969308983433 1.1226633754316448 0.8344604618177615
H -0.5967988404152452 0.8293389564127863 0.3656811664857143
H -0.561279121421758 -0.8890448107883351 -0.2624468027213206
H 1.3192017770833095 -0.5679252149158862 1.0185379657873617
H 2.2980772843621713 1.7469025018361688 -0.799324618157086
H 3.6218116554012028 0.42106938813503936 1.636380572979641
H 4.182172592118815 1.909272292960014 0.7088963882701939
