10
64
C 0.0 0.0 0.0
C 1.39434202472 0.0 0.0
C 2.3878949258842708 1.041692651922552 0.0
C 3.4923451458252526 1.0990784493254824 0.7738641963537315
H -0.5916531522980472 0.8471980597275185 0.3307191760080182
H -0.5582971331980685 -0.9001987667127161 -0.2283927976806803
H 1.4225146660924688 -0.6632708472873554 0.950480467303867
H 2.2261942669157713 1.8164153390858768 -0.7386001947170914
H 3.712878623352847 0.34655279845665654 1.5147224911892483
H 4.197300098168589 1.9060839670372074 0.6616749378103657
