10
91
C 0.0 0.0 0.0
C 1.37694696539 0.0 0.0
C 2.427013602032863 0.98398479594308 0.0
C 3.370365698406948 1.1966027699073603 0.9489857793841818
H -0.6089554826371941 0.7811604814643041 0.44485415393448385
H -0.5683393822145122 -0.8574128746274695 -0.3411391231028633
H 1.0639173064772751 -0.3037627566098597 1.1065471263295314
H 2.474946785094883 1.5580411921852322 -0.9140514223370351
H 3.3917356674971613 0.6378637304691536 1.868415617396166
H 4.142696928707049 1.9271816440761613 0.796234625216178
