10
15
C 0.0 0.0 0.0
C 1.42591083611 0.0 0.0
C 2.30893746685 1.13801837406 0.0
C 3.61895327126 1.06922663935 0.276260441074
H -0.559796795005 0.922273002511 0.100107853276
H -0.539915019827 -0.939141504712 -0.0114442461078
H 1.87045940592 -0.976357356289 0.264152188363
H 1.86701426655 2.09826383689 -0.250548710697
H 4.10584109119 0.136132125692 0.534418136096
H 4.23298180836 1.961636057 0.252544256271
