10
9
C 0.0 0.0 0.0
C 1.42977640485 0.0 0.0
C 2.2986065198304364 1.1490293924626394 0.0
C 3.620536293782478 1.079613935913111 0.20458399042677913
H -0.5558570868112837 0.9271770002528559 0.07040395905367232
H -0.5376504831629536 -0.9403390492076886 0.01574996817556468
H 1.8939078155605167 -0.9815898945190757 0.16440109658854138
H 1.8366240967898804 2.1157351705116754 -0.18223307343644612
H 4.126608843904105 0.13988173984777907 0.3955342826472712
H 4.226829437257346 1.9784033566392718 0.19067213391634832
