10
70
C 0.0 0.0 0.0
C 1.39047645598 0.0 0.0
C 2.39686813803 1.02914259618 0.0
C 3.46694691085 1.11631849369 0.819967320461
H -0.595513910541 0.833942432979 0.357025897752
H -0.560534135552 -0.891955486269 -0.253980366678
H 1.34543510342 -0.59276479744 1.00312640999
H 2.27990268685 1.76486523524 -0.784788683161
H 3.64501166759 0.401454823016 1.60722382276
H 4.186080085 1.90820573125 0.697660891006
