10
40
C 0.0 0.0 0.0
C 1.40980429969 0.0 0.0
C 2.3504570907430256 1.0902717553063663 0.0
C 3.5761138654823394 1.0589597391318022 0.5537129455361589
H -0.576121829720929 0.8915764497441608 0.22087202155240737
H -0.5493186836083965 -0.9256883606735351 -0.12360188022797604
H 1.6918820575985478 -0.877658841244749 0.6580791537906614
H 2.0288508126619207 1.985890743230351 -0.5199570857920476
H 3.948466551714156 0.18938583435185596 1.077322129288103
H 4.230527412336232 1.9158692480248012 0.48514082093189864
