10
79
C 0.0 0.0 0.0
C 1.38467810287 0.0 0.0
C 2.41003019102 1.01002151917 0.0
C 3.42666293771 1.14712282104 0.881617037271
H -0.601288210444 0.812512889287 0.395507742028
H -0.56388387873 -0.878222955114 -0.291816863641
H 1.22590152386 -0.476140428156 1.06357814627
H 2.36253457098 1.68106218883 -0.84663776379
H 3.53875141362 0.494706401992 1.73153692921
H 4.16799941295 1.91431989185 0.745183164038
