10
56
C 0.0 0.0 0.0
C 1.39949611638 0.0 0.0
C 2.37568752905 1.05817656414 0.0
C 3.52382681736 1.08044789719 0.706535761512
H -0.586491644162 0.863551788156 0.294885836757
H -0.555309710233 -0.910036969675 -0.193866316407
H 1.52032666607 -0.747245601439 0.86636935734
H 2.15690259831 1.87954098365 -0.671352648135
H 3.79854559882 0.282845785722 1.38024470211
H 4.21077155582 1.90594514369 0.608483923832
