10
54
C 0.0 0.0 0.0
C 1.40078463929 0.0 0.0
C 2.372592760056439 1.0622525074918632 0.0
C 3.5312015413098337 1.0765944611111795 0.6887083407114567
H -0.585198814610614 0.8673999708954468 0.2857990667929764
H -0.5545620089467198 -0.9122885529412795 -0.18516686190938983
H 1.5436904263889453 -0.7663461204402184 0.8430583671961718
H 2.1400669443151874 1.8942985486456705 -0.6535969862752432
H 3.8189638392460283 0.2686598922552369 1.3447484787866588
H 4.213816238483548 1.9064198661861256 0.5942784570109556
