10
19
C 0.0 0.0 0.0
C 1.42333379028 0.0 0.0
C 2.31574740123 1.13058016151 0.0
C 3.61588181419 1.06398108044 0.323148199086
H -0.562418646247 0.918466592986 0.11977599834
H -0.541423072707 -0.937903657648 -0.0295292172202
H 1.85043663005 -0.969047408909 0.330241385619
H 1.88921787279 2.08462276197 -0.295535522071
H 4.08807591552 0.137115176569 0.625568808191
H 4.2354849751 1.9517136855 0.292620777216
