10
41
C 0.0 0.0 0.0
C 1.40916003823 0.0 0.0
C 2.3520653107482543 1.0883004007316972 0.0
C 3.573336505946206 1.0596684005164434 0.563910960001889
H -0.5767717525490527 0.8900121842351171 0.22558185493614175
H -0.5496937513651526 -0.9248693390110971 -0.12803485852627694
H 1.6822938546215607 -0.8710360295865858 0.6724115771960488
H 2.0363688989648883 1.9800332195909631 -0.5299990021476119
H 3.94007444284081 0.19387320076647396 1.097444601829245
H 4.229636744791663 1.9148254647095926 0.4934799259980074
