10
32
C 0.0 0.0 0.0
C 1.41495839134 0.0 0.0
C 2.33744377055118 1.1058740393614463 0.0
C 3.5956223707808435 1.0563879992937106 0.4693694814739701
H -0.5709138554089463 0.9031715785268826 0.18283000859175394
H -0.5463151417854053 -0.9314677447264332 -0.08796891981873875
H 1.7622920215889428 -0.9231742018381559 0.5384627928690721
H 1.9713805671459488 2.028947725757872 -0.43726708919155627
H 4.010234256196442 0.1600441823334232 0.9113681624494793
H 4.235682048692873 1.9263524226550615 0.41559480427189205
