10
95
C 0.0 0.0 0.0
C 1.37436991956 0.0 0.0
C 2.4325286451030816 0.9751707719867644 0.0
C 3.3512904154811247 1.2150086023653022 0.9675152894523374
H -0.6115030797847237 0.7700300756845329 0.4607735790413448
H -0.5698217859177378 -0.849854629828116 -0.35726863229992983
H 1.0103783932987156 -0.24295438003530576 1.1107644937296766
H 2.512600548013997 1.5143972061347832 -0.9324586906909713
H 3.342075953361167 0.689940660596003 1.9063216584247829
H 4.134214212311785 1.932470976726314 0.8100905863463844
