10
80
C 0.0 0.0 0.0
C 1.38403384142 0.0 0.0
C 2.4114703442340746 1.0078752767446602 0.0
C 3.4220602796740445 1.1508935141300167 0.8878906051619504
H -0.6019285435276666 0.8100197561040323 0.3997077838153073
H -0.5642556441200826 -0.876597022061767 -0.29597796937652615
H 1.2124398350619854 -0.46245231781534935 1.0688452756592197
H 2.371831079249884 1.6712885166914024 -0.8529303826157109
H 3.5266846462789534 0.5058415263888743 1.744232591294876
H 4.165925041171042 1.9151990094857267 0.7499781055176906
