10
83
C 0.0 0.0 0.0
C 1.38210105705 0.0 0.0
C 2.41576381518 1.00141077881 0.0
C 3.40813458088 1.16260355617 0.906001595487
H -0.603848027461 0.802408343049 0.412213942851
H -0.565370424787 -0.871600343297 -0.308407253095
H 1.17194716754 -0.420593924836 1.08284066031
H 2.39982138 1.64143237291 -0.871086713202
H 3.49024090839 0.540138917806 1.78093681261
H 4.15964928532 1.91805817941 0.763775291
