10
61
C 0.0 0.0 0.0
C 1.3962748091 0.0 0.0
C 2.38334950456 1.04790773765 0.0
C 3.50449958333 1.09149684123 0.749379711092
H -0.589719431788 0.853509460609 0.317380275033
H -0.55717748481 -0.904043397325 -0.215498000475
H 1.45994567355 -0.696150961988 0.920719899139
H 2.19986815989 1.84084875513 -0.714112871847
H 3.74570784839 0.321370519306 1.46573901437
H 4.20257532193 1.90565898972 0.642417021448
