10
24
C 0.0 0.0 0.0
C 1.420112483 0.0 0.0
C 2.3241716546974773 1.1211735876944173 0.0
C 3.6098861981859045 1.0593404961554878 0.3805867067335596
H -0.5656907250061917 0.9131099163654497 0.14419329609240047
H -0.5433062889495514 -0.9358638349396432 -0.052073310904990934
H 1.8206098751448405 -0.9554635458871429 0.4118198105075452
H 1.9190646376401757 2.065281315839115 -0.35095576661308686
H 4.061659821663836 0.14233462077382686 0.7375550394307794
H 4.236933301929533 1.9407194805426928 0.3412894206973009
