10
70
C 0.0 0.0 0.0
C 1.39047645598 0.0 0.0
C 2.3968681380324837 1.0291425961800655 0.0
C 3.4669469108521422 1.116318493694569 0.8199673204607629
H -0.5955139105411523 0.8339424329790966 0.35702589775186216
H -0.56053413555226 -0.891955486269171 -0.2539803666779579
H 1.3454351034213505 -0.5927647974395078 1.0031264099926933
H 2.2799026868500873 1.7648652352417133 -0.7847886831612947
H 3.645011667592358 0.40145482301642466 1.607223822763355
H 4.1860800849984585 1.908205731251365 0.6976608910063729
