10
27
C 0.0 0.0 0.0
C 1.41817969863 0.0 0.0
C 2.32917870711 1.11547200822 0.0
C 3.60518907387 1.05758628284 0.414357523746
H -0.567651164424 0.909579167826 0.158747116189
H -0.544435229167 -0.934378193813 -0.0655615181956
H 1.80023094885 -0.944892412816 0.459972091372
H 1.93804481747 2.0524385772 -0.383695413723
H 4.0436562525 0.147618677701 0.803565832447
H 4.23695713934 1.93486981671 0.369685437365
