10
14
C 0.0 0.0 0.0
C 1.42655509756 0.0 0.0
C 2.30722527075 1.13986576925 0.0
C 3.61947313481 1.07074911498 0.264420334563
H -0.559140753218 0.923157666999 0.0951733914423
H -0.539537801593 -0.939396096056 -0.00691699273961
H 1.87492072499 -0.977701072386 0.247557402325
H 1.86170299084 2.10142298387 -0.239225437601
H 4.1097995197 0.1363247234 0.511438174256
H 4.23216051569 1.96427361202 0.242374529998
