10
31
C 0.0 0.0 0.0
C 1.4156026528 0.0 0.0
C 2.3357988061972206 1.1078031275933966 0.0
C 3.597704282884557 1.0564548900257296 0.4585006368422776
H -0.5702617895356544 0.9045051223058796 0.17803144772487986
H -0.5459393249906621 -0.9320931648820404 -0.08349522719748649
H 1.7702673992244984 -0.9279303548433697 0.5229644359882136
H 1.9645479788700193 2.0338555165270344 -0.4266596601442221
H 4.0172505733098705 0.15719597776189997 0.8900423759797991
H 4.236063456122672 1.927933555848656 0.40655855787013406
