10
46
C 0.0 0.0 0.0
C 1.40593873095 0.0 0.0
C 2.360044252328703 1.0783740010772385 0.0
C 3.55840569498456 1.0644924944875536 0.6136655387569102
H -0.5800177640571226 0.8818126866481463 0.24896989767180486
H -0.5515678359628308 -0.9204542554104147 -0.15012199658035608
H 1.6319271261949928 -0.8348296047724746 0.7416735139026978
H 2.0749916147381406 1.9491610059852231 -0.5791217364775649
H 3.896037953998864 0.21903399689623615 1.195801639477065
H 4.224439881929778 1.9104729412936376 0.5339461789901736
