10
87
C 0.0 0.0 0.0
C 1.37952401122 0.0 0.0
C 2.42142513964 0.992731668744 0.0
C 3.38934112432 1.17911507775 0.928470231568
H -0.606403791709 0.791955415228 0.428665204084
H -0.566855593883 -0.864662567079 -0.324850013273
H 1.11786278644 -0.363057883643 1.09720527965
H 2.43732295817 1.60040657464 -0.893576786101
H 3.44117962663 0.587892658196 1.8265932321
H 4.15119489429 1.92236114522 0.780794856252
