10
71
C 0.0 0.0 0.0
C 1.38983219453 0.0 0.0
C 2.398348318300864 1.0270354862987738 0.0
C 3.462588117256076 1.119454274816312 0.827269519206083
H -0.5961565002003196 0.8316521488917132 0.36136077964045565
H -0.5609066711537809 -0.8905102800804184 -0.2582176212268614
H 1.3323474786292007 -0.5804256589212862 1.010969527138106
H 2.288974649308614 1.7559318981633905 -0.7921117512403566
H 3.6334447040471605 0.411181299195859 1.6219092202809
H 4.184135590793183 1.9087172778752484 0.7033264970946391
