10
94
C 0.0 0.0 0.0
C 1.37501418102 0.0 0.0
C 2.43115679769 0.977380539776 0.0
C 3.3560641519 1.21032436632 0.963070744815
H -0.610866565406 0.772843764469 0.456819379138
H -0.569451315018 -0.851772929534 -0.353251540236
H 1.02371045906 -0.25828434869 1.11019524078
H 2.50318933326 1.52542456832 -0.928053351483
H 3.35450203801 0.67673037789 1.89721649138
H 4.13633031851 1.9311074078 0.806775177465
