10
97
C 0.0 0.0 0.0
C 1.37308139665 0.0 0.0
C 2.43525846166 0.970738770719 0.0
C 3.34174065424 1.22453678988 0.976026149837
H -0.612775336808 0.76434115496 0.468630009814
H -0.570562467351 -0.845960882743 -0.365271697118
H 0.983844319402 -0.212063488809 1.1109262383
H 2.53140993504 1.49211601306 -0.940872131993
H 3.31721691284 0.716731977923 1.92378262825
H 4.1299964146 1.93527584953 0.816424255894
