10
23
C 0.0 0.0 0.0
C 1.42075674445 0.0 0.0
C 2.32249469412 1.12306453042 0.0
C 3.61127146654 1.06009728468 0.369210672992
H -0.565036776357 0.914234187895 0.139325541476
H -0.542929810455 -0.93631547833 -0.0475705832811
H 1.82699366119 -0.958581387214 0.395623052969
H 1.91291408202 2.06935509547 -0.33995278501
H 4.06730722932 0.140933164166 0.715346918895
H 4.23678736145 1.94279352867 0.331687497688
