10
81
C 0.0 0.0 0.0
C 1.38338957996 0.0 0.0
C 2.41290600522 1.00572473294 0.0
C 3.41743712596 1.15473106405 0.894046320687
H -0.602568624279 0.807504556053 0.403892243057
H -0.564627323637 -0.874951243207 -0.300130133012
H 1.19895741341 -0.448629643639 1.07381295299
H 2.38114534659 1.66142512116 -0.859103386062
H 3.51457554713 0.517126316352 1.75669882555
H 4.16384124444 1.91611556902 0.754675218589
