10
72
C 0.0 0.0 0.0
C 1.38918793307 0.0 0.0
C 2.39982408711 1.02492399126 0.0
C 3.4581969309 1.12266337543 0.834460461818
H -0.596798840415 0.829338956413 0.365681166486
H -0.561279121422 -0.889044810788 -0.262446802721
H 1.31920177708 -0.567925214916 1.01853796579
H 2.29807728436 1.74690250184 -0.799324618157
H 3.6218116554 0.421069388135 1.63638057298
H 4.18217259212 1.90927229296 0.70889638827
