10
25
C 0.0 0.0 0.0
C 1.41946822154 0.0 0.0
C 2.32584465034 1.11927784753 0.0
C 3.60840998599 1.05866965918 0.391904112663
H -0.566344439456 0.91195928526 0.149052906763
H -0.543682684923 -0.935390392303 -0.0565727800689
H 1.81402026686 -0.952143303928 0.427946948157
H 1.92530392335 2.06110415702 -0.361914947201
H 4.05583419749 0.143915766835 0.759662809387
H 4.23700952516 1.93870760411 0.350823637389
