10
1
C 0.0 0.0 0.0
C 1.4349304965 0.0 0.0
C 2.284618714546725 1.1634349572317924 0.0
C 3.616692804270609 1.0980539977605084 0.1070041169945008
H -0.5505913142183737 0.9321968930203598 0.030472567151211122
H -0.5346265343169391 -0.9407005494002677 0.052097350668538364
H 1.9126050048743688 -0.9784163512595464 0.03192946632152862
H 1.8017932090937434 2.133621956770909 -0.09014932047024683
H 4.14277953438066 0.15435704394650407 0.2073435357902845
H 4.213810618166203 2.004263305092188 0.10524179749028387
