10
31
C 0.0 0.0 0.0
C 1.4156026528 0.0 0.0
C 2.3357988062 1.10780312759 0.0
C 3.59770428288 1.05645489003 0.458500636842
H -0.570261789536 0.904505122306 0.178031447725
H -0.545939324991 -0.932093164882 -0.0834952271975
H 1.77026739922 -0.927930354843 0.522964435988
H 1.96454797887 2.03385551653 -0.426659660144
H 4.01725057331 0.157195977762 0.89004237598
H 4.23606345612 1.92793355585 0.40655855787
