10
51
C 0.0 0.0 0.0
C 1.40271742366 0.0 0.0
C 2.36791872029 1.06833235579 0.0
C 3.54184946039 1.07143098899 0.661253779825
H -0.583257741431 0.872989452937 0.272076851485
H -0.553439824778 -0.915508745824 -0.172070085561
H 1.57780076911 -0.793527033279 0.806511661852
H 2.11522234327 1.91565639724 -0.626298830577
H 3.84875996688 0.248708979517 1.29016939488
H 4.21810543975 1.90753021067 0.572305254708
