10
73
C 0.0 0.0 0.0
C 1.38854367161 0.0 0.0
C 2.40129543545 1.02280812028 0.0
C 3.45377467807 1.12594513709 0.841539353028
H -0.597440930854 0.827002946402 0.369986935166
H -0.561651486286 -0.887559122873 -0.266667813575
H 1.3060020912 -0.555266154367 1.02582865924
H 2.30720916829 1.73777767353 -0.806426173191
H 3.61011515528 0.431117891271 1.65063605264
H 4.18019212011 1.90987013821 0.71437027785
