10
37
C 0.0 0.0 0.0
C 1.41173708406 0.0 0.0
C 2.3456077405075026 1.0961578127205782 0.0
C 3.5840062385004097 1.05734898451668 0.5226465029539222
H -0.5741706260444431 0.8961167407402255 0.20668056403217078
H -0.5481929797752999 -0.9280169046083707 -0.11027371256919681
H 1.7196242641217234 -0.8962837752498982 0.6142072246164281
H 2.0067308438252764 2.0028290212318787 -0.48942358256145185
H 3.972770641179922 0.17701620933781148 1.0160991353086768
H 4.232882037622297 1.9193531562131798 0.45964405976593004
