10
38
C 0.0 0.0 0.0
C 1.4110928226 0.0 0.0
C 2.34722829595 1.09420046991 0.0
C 3.58144994552 1.05779990295 0.533079482919
H -0.574821266133 0.894628795203 0.211421236765
H -0.548568297753 -0.927262171952 -0.114721203118
H 1.71055004124 -0.890282927552 0.62897216883
H 2.0140306212 1.99728863043 -0.499667858091
H 3.96481694139 0.180957246842 1.03664676992
H 4.23215116737 1.91813278352 0.468222181456
