10
62
C 0.0 0.0 0.0
C 1.39563054764 0.0 0.0
C 2.3848689772 1.04584050682 0.0
C 3.50049197843 1.0939456696 0.757644938553
H -0.590364251945 0.851429327224 0.321839980109
H -0.557550785758 -0.902782482409 -0.219803484
H 1.4475612528 -0.685372431497 0.93088517845
H 2.20860070288 1.83280495763 -0.722375251489
H 3.73485350375 0.329594004385 1.48226385121
H 4.20084455024 1.90575201116 0.648929009403
