10
32
C 0.0 0.0 0.0
C 1.41495839134 0.0 0.0
C 2.33744377055 1.10587403936 0.0
C 3.59562237078 1.05638799929 0.469369481474
H -0.570913855409 0.903171578527 0.182830008592
H -0.546315141785 -0.931467744726 -0.0879689198187
H 1.76229202159 -0.923174201838 0.538462792869
H 1.97138056715 2.02894772576 -0.437267089192
H 4.0102342562 0.160044182333 0.911368162449
H 4.23568204869 1.92635242266 0.415594804272
