10
68
C 0.0 0.0 0.0
C 1.3917649789 0.0 0.0
C 2.393894579578107 1.0333436235437559 0.0
C 3.4755620136001073 1.1102694468344905 0.8050324117717849
H -0.5942279841724951 0.8384539159861184 0.34831314416231735
H -0.5597888085683584 -0.8947849337387092 -0.24548202976379005
H 1.3714198504446562 -0.6169487658852333 0.9866287797741294
H 2.261856456277938 1.782441319654236 -0.7698164642136245
H 3.6679368207969683 0.3824913384945553 1.577218350350448
H 4.1899094107183394 1.9073155544184601 0.686043745971922
