10
57
C 0.0 0.0 0.0
C 1.39885185492 0.0 0.0
C 2.3772285081869846 1.0561318058386593 0.0
C 3.5200605188124636 1.0824967886322239 0.7153036627368242
H -0.5871376921901732 0.8615913750297081 0.2994104132338369
H -0.5556834342591174 -0.9088798504082487 -0.19820622079019198
H 1.5084684448120957 -0.7374055771841639 0.8776963133575719
H 2.1653982328039056 1.872007376725917 -0.6800934942817457
H 3.7881777812548343 0.2902024409537046 1.3977190094684184
H 4.209196934922649 1.905785992834316 0.6154521316623052
