10
39
C 0.0 0.0 0.0
C 1.41044856114 0.0 0.0
C 2.348844749259346 1.092238447899742 0.0
C 3.5788187511555267 1.0583368610571426 0.543435377042381
H -0.5754716674703118 0.8931153425923551 0.2161517691208668
H -0.5489435323875386 -0.926485981237244 -0.11916396041169573
H 1.701301722699816 -0.8840745575325659 0.6435977530360777
H 2.021404330083097 1.9916425455152473 -0.50984619998785
H 3.956714817745948 0.1850804800541731 1.0570553132005134
H 4.231365922851187 1.9169715822469595 0.4767213393867468
