10
56
C 0.0 0.0 0.0
C 1.39949611638 0.0 0.0
C 2.375687529047762 1.0581765641416763 0.0
C 3.5238268173592457 1.080447897186367 0.7065357615121344
H -0.5864916441620583 0.8635517881557946 0.2948858367570598
H -0.5553097102334785 -0.9100369696749493 -0.19386631640716318
H 1.5203266660722177 -0.7472456014385489 0.8663693573400515
H 2.1569025983101615 1.8795409836460886 -0.6713526481351039
H 3.7985455988202723 0.2828457857223433 1.3802447021062085
H 4.2107715558204895 1.905945143689661 0.60848392383248
