10
97
C 0.0 0.0 0.0
C 1.37308139665 0.0 0.0
C 2.435258461655738 0.9707387707190648 0.0
C 3.3417406542418853 1.2245367898783381 0.9760261498371703
H -0.6127753368084178 0.7643411549603939 0.468630009813905
H -0.5705624673512119 -0.8459608827434697 -0.36527169711832547
H 0.9838443194016415 -0.21206348880941647 1.1109262383025154
H 2.5314099350380874 1.4921160130599986 -0.9408721319927301
H 3.3172169128432927 0.7167319779225343 1.9237826282520276
H 4.129996414603666 1.9352758495344973 0.8164242558935378
