10
44
C 0.0 0.0 0.0
C 1.40722725386 0.0 0.0
C 2.35686514576 1.08235845156 0.0
C 3.56458186379 1.06230746515 0.594015567924
H -0.578720081271 0.885167839322 0.23964745617
H -0.550818453205 -0.922284162362 -0.141303106071
H 1.65254697955 -0.849928661395 0.714467520596
H 2.05934090289 1.96182657289 -0.559695941372
H 3.91405831762 0.208425768151 1.15692009241
H 4.22666289427 1.91204208568 0.518008169153
