10
17
C 0.0 0.0 0.0
C 1.42462231319 0.0 0.0
C 2.31235022416 1.13430897785 0.0
C 3.61761396647 1.0664344921 0.299801752479
H -0.561108184471 0.92042325026 0.10995616219
H -0.540669210416 -0.938566444158 -0.0204917545241
H 1.86088108385 -0.973092079832 0.297264913524
H 1.87792602717 2.09164505712 -0.273106696696
H 4.0973412587 0.136271641651 0.580153253157
H 4.23438770619 1.95654936078 0.272704942813
