10
67
C 0.0 0.0 0.0
C 1.39240924035 0.0 0.0
C 2.3924012195457207 1.035437522660088 0.0
C 3.47981566956566 1.1073574212016069 0.7974013683863067
H -0.5935846481285341 0.8406749366144146 0.3439355215114761
H -0.5594160173062539 -0.8961690884197183 -0.2412211436928202
H 1.3843088896013913 -0.6287885831361472 0.9779807693159824
H 2.2528850159762652 1.791082909709161 -0.7621696121363564
H 3.6792897602445773 0.37325656267679774 1.5619020756588275
H 4.191792155283677 1.906938158701784 0.6800928455685291
