10
88
C 0.0 0.0 0.0
C 1.37887974976 0.0 0.0
C 2.4228291078967277 0.9905512794879539 0.0
C 3.38461110079764 1.1833976943736475 0.9337835801396089
H -0.6070420971004027 0.7892884922932851 0.4327373177482547
H -0.5672266705610477 -0.8628792566740718 -0.3289369291042398
H 1.1043529053067809 -0.34838966815894357 1.1000160013553602
H 2.446721065797238 1.589938510303627 -0.8988865010850404
H 3.4288479686419047 0.6001817782369525 1.837411626892222
H 4.149072157348609 1.9235196281263482 0.7848031158631701
