10

C   -1.8978182280    0.1068120489    0.0509178151
C   -0.6363416123   -0.4113156123   -0.0914513940
C    0.6562128367    0.0325863773   -0.5416200695
C    1.7832479594    0.2257450321    0.1882849878
H   -2.1127786559    1.1428810206    0.2956093101
H   -2.7783022166   -0.5251550378    0.0549782749
H   -0.8333839435   -0.0733537498    1.0423858394
H    0.7120260252    0.1449206367   -1.6140385752
H    1.8002028764    0.0993179011    1.2558966197
H    2.7044745511    0.4934030847   -0.2922033711
