10
74
C 0.0 0.0 0.0
C 1.46680912223 0.0 0.0
C 2.2239187045063096 1.2218235884242326 0.0
C 3.152501463512753 0.9168812789159493 1.0408477559415241
H -0.5274827720278416 0.7062480029236541 -0.6145914288983286
H -0.5522464694984484 -0.5783106332422058 0.7166695634763045
H 1.9892422404224264 -0.9379916716327863 -0.017655192902994277
H 1.7309958281359126 2.1646103796174385 -0.14910915171373895
H 3.7373995792981725 0.015584521565284337 1.020595672797192
H 3.2227151929983657 1.545454228393073 1.9112379446158392
