10
69
C 0.0 0.0 0.0
C 1.46469869221 0.0 0.0
C 2.228023941927216 1.2182142447636533 0.0
C 3.211097831393441 0.9189148675438297 0.9824825886393395
H -0.5289970081083649 0.7360595727856203 -0.5782340155283655
H -0.5510531933663233 -0.6186287834651413 0.6841395102286809
H 1.984270850441448 -0.9407247836187518 -0.015465222478371173
H 1.7354571778424894 2.1629120650779283 -0.1445703532885439
H 3.767952660907058 -0.0006103146972672446 0.9547510816205577
H 3.3613711243851014 1.5752915012689557 1.8224677768517856
