10
59
C 0.0 0.0 0.0
C 1.46047783217 0.0 0.0
C 2.236182747877 1.2109007935695115 0.0
C 3.3167824892060973 0.926724153210127 0.859295943583933
H -0.5320266569883018 0.7899999999250276 -0.5012823895570415
H -0.5486566992946317 -0.6936395916147483 0.6123702764684039
H 1.9742763158936507 -0.9461575106742026 -0.01106254372774308
H 1.7444069712967303 2.159401346218218 -0.1353918320571722
H 3.8252181967515497 -0.021948602064059353 0.8282914642476673
H 3.612948818997176 1.6333072548520096 1.617428295197005
