10
39
C 0.0 0.0 0.0
C 1.4520361121 0.0 0.0
C 2.252289196024078 1.195897145510526 0.0
C 3.4799718179479204 0.9598888508682148 0.5966034712181666
H -0.5380905605225746 0.8733697752473448 -0.3332395708496917
H -0.5438239858253254 -0.8177869336571849 0.44513584912287785
H 1.954081434448429 -0.9568851377480501 -0.002166683637426891
H 1.762412891692304 2.15191278149605 -0.11663770456186384
H 3.9332695885573346 -0.01996028860279242 0.5938468690342014
H 3.9928391884386203 1.749871013265523 1.1258922502293172
