10
60
C 0.0 0.0 0.0
C 1.46089991818 0.0 0.0
C 2.23536999443 1.2116378108 0.0
C 3.306921688 0.925701093944 0.871946098271
H -0.531723622097 0.784958495747 -0.509215475514
H -0.548896944966 -0.68649735858 0.619932133901
H 1.9752788676 -0.94561627083 -0.0115041732042
H 1.74351037734 2.15975932789 -0.136315700505
H 3.81965938812 -0.0204812335049 0.840633319651
H 3.58947978388 1.62755778394 1.63942356511
