10
84
C 0.0 0.0 0.0
C 1.47102998226 0.0 0.0
C 2.2156573665908814 1.2289471085263635 0.0
C 3.024456319930631 0.9159688078392003 1.149520510790217
H -0.5244554946024416 0.6413152590409184 -0.6826065813708696
H -0.5546230726795737 -0.4927156900384347 0.7745415849434376
H 1.9991330642518765 -0.9324926367772497 -0.02201231740910375
H 1.722100508187086 2.1678948270356297 -0.1580846779126499
H 3.6703126215501896 0.05888186421783881 1.1575359589981928
H 2.9246595878716555 1.4826199446541368 2.05716230290471
