10
28
C 0.0 0.0 0.0
C 1.44739316606 0.0 0.0
C 2.26102475988 1.18743259476 0.0
C 3.54194959059 0.989259981486 0.449336554957
H -0.541428257691 0.904332835899 -0.234771136111
H -0.541143444629 -0.869402167419 0.342059672078
H 1.94285813519 -0.962704447669 0.00277716994399
H 1.7723749145 2.14752137315 -0.106101790322
H 3.99255905278 0.00673054289292 0.473068381738
H 4.12392873788 1.81775726939 0.830363244331
