10
3
C 0.0 0.0 0.0
C 1.43684101597 0.0 0.0
C 2.2805431056835053 1.167639860965322 0.0
C 3.6131632558916578 1.0863645997132232 0.1301511598850985
H -0.5490204201010588 0.9331837281098705 -0.0026591683680013928
H -0.5349918983070527 -0.9373426116855771 0.08824225057328319
H 1.9170475344332132 -0.9757074901477127 0.014147017284231735
H 1.7951633660185953 2.1367950029155818 -0.08158986855030897
H 4.128005957381165 0.13521731222854727 0.2134837450478505
H 4.217894336346989 1.9863865719615266 0.16846009442144239
