10
54
C 0.0 0.0 0.0
C 1.45836740215 0.0 0.0
C 2.24023599524 1.20719684978 0.0
C 3.36368086397 0.932702429575 0.795144487595
H -0.533542062572 0.813994036093 -0.4608840429
H -0.547453484333 -0.728082005501 0.573345087017
H 1.96925325564 -0.948856851417 -0.00884986727741
H 1.74889527981 2.15758817451 -0.13075257698
H 3.85264603428 -0.0270545178038 0.767541028211
H 3.72422327153 1.66203701722 1.50309644797
