10
35
C 0.0 0.0 0.0
C 1.45034776809 0.0 0.0
C 2.2554760051877487 1.192836502544049 0.0
C 3.5047727395278825 0.9696208986231187 0.5429682298348867
H -0.5393040624351608 0.88588954670905 -0.29782983022909537
H -0.5428510936946058 -0.8380078215702874 0.4084418844298674
H 1.950009726042869 -0.9590080146238114 -0.00037310221980192644
H 1.766030711095628 2.1503386454085955 -0.1128243990493194
H 3.9547556983666654 -0.012364643763700167 0.549372502842298
H 4.047066230612275 1.774133874544046 1.0194470659659585
