10
4
C 0.0 0.0 0.0
C 1.43726310197 0.0 0.0
C 2.27977148646 1.16844627352 0.0
C 3.61204630114 1.08170130003 0.142147708031
H -0.548716564696 0.933155967847 -0.0120342471304
H -0.535239542554 -0.936005401728 0.0987410981027
H 1.91808798142 -0.975193458748 0.0136886742561
H 1.79424804426 2.13724438572 -0.0825851639275
H 4.1226863479 0.128282011621 0.223498267913
H 4.219176684 1.97929936631 0.19352964582
