10
52
C 0.0 0.0 0.0
C 1.45752323015 0.0 0.0
C 2.241852361003939 1.205706484476497 0.0
C 3.3813090477053978 0.9355088014366636 0.7691151808955461
H -0.5341483321366993 0.8230164610298266 -0.4443980447774467
H -0.5469712714667796 -0.7412496152679942 0.5571851921406719
H 1.9672392306328264 -0.9499333666284441 -0.007962685527034974
H 1.7506930828399143 2.156851992028967 -0.1288876179489304
H 3.8634873667255945 -0.028053812269152822 0.7436713912495275
H 3.7658068024408498 1.6735561680724103 1.4554928465816024
