10
80
C 0.0 0.0 0.0
C 1.46934163825 0.0 0.0
C 2.2189699829837455 1.22611295531616 0.0
C 3.0773558225119575 0.9158740207780448 1.10744891292091
H -0.5256662131574211 0.6681099203557147 -0.6561836423730933
H -0.5536740237723475 -0.5276982396017967 0.7525737168586049
H 1.9951850614470825 -0.9346974521465721 -0.020273123696409216
H 1.7256542379542426 2.166598863343571 -0.15451087830504312
H 3.6982700930168173 0.03983126916976454 1.1019369803259678
H 3.046810640717666 1.508368462265126 2.004099374651738
