10
89
C 0.0 0.0 0.0
C 1.47314041228 0.0 0.0
C 2.21150158954 1.23246112613 0.0
C 2.95534050692 0.916826659923 1.19922579391
H -0.522942460455 0.606356962577 -0.714090880522
H -0.55580639684 -0.447720278976 0.799715559449
H 2.00405242117 -0.929726988368 -0.0241794404948
H 1.71766663115 2.16948171858 -0.162520956469
H 3.63280814114 0.0858956093824 1.22847941785
H 2.76755739677 1.44900108813 2.11302138713
