10
44
C 0.0 0.0 0.0
C 1.45414654212 0.0 0.0
C 2.2482893787218634 1.1996949414259759 0.0
C 3.4452976034265745 0.9492214921178015 0.6634485318688864
H -0.5365740179452372 0.8557307859323029 -0.376755735652776
H -0.545037126070058 -0.7902614843776978 0.4896007401579441
H 1.9591557690939976 -0.9542208019304144 -0.004401920864074276
H 1.7578983289877932 2.15384427917406 -0.12137527023533218
H 3.906478867510647 -0.026071549292398744 0.6504507546200784
H 3.9145944465319573 1.7201285006707874 1.256183607077253
