10
0
C 0.0 0.0 0.0
C 1.43557475796 0.0 0.0
C 2.28285333607081 1.165213312389804 0.0
C 3.615714687584507 1.1007187378412335 0.09467907895465574
H -0.5499320691771377 0.9327014245964302 0.02545832765544935
H -0.5342481751218086 -0.9406462217391384 0.05664544732678516
H 1.9139222070165047 -0.9772464782767005 0.015523813024958031
H 1.7979111568901511 2.1354365154065 -0.07859669261507297
H 4.1438419922633996 0.15690624618205307 0.18364649287599524
H 4.211774237299337 2.0077750968812764 0.09435149821693825
