10
57
C 0.0 0.0 0.0
C 1.45963366017 0.0 0.0
C 2.23780615467 1.20942298557 0.0
C 3.33602448395 0.9289408085 0.833807234963
H -0.532632773074 0.799841772322 -0.485267182273
H -0.548175810601 -0.707673121994 0.597000592569
H 1.97226915109 -0.947238621957 -0.0101783785745
H 1.74620122885 2.15868073945 -0.133540106878
H 3.83625563369 -0.0244374838517 0.803802113467
H 3.65868853466 1.6447968058 1.57254101953
