10
75
C 0.0 0.0 0.0
C 1.46723120823 0.0 0.0
C 2.223095610884535 1.2225416562146698 0.0
C 3.140337278215015 0.9166097843778791 1.0522208764596508
H -0.5271799723353561 0.7000676639279241 -0.6216813725920417
H -0.5524847268767761 -0.5700387591460931 0.7228945033059392
H 1.990234442993185 -0.9374437269200537 -0.01809227545495071
H 1.73010464969291 2.164945527856432 -0.1500128449134992
H 3.731082979932264 0.019262369980450167 1.0339771689000778
H 3.194076198236877 1.5393826343599575 1.9277803046003958
