10
33
C 0.0 0.0 0.0
C 1.44950359608 0.0 0.0
C 2.25706503365 1.19129872747 0.0
C 3.51619917539 0.974891814152 0.516158847174
H -0.539910902026 0.89161201862 -0.279945748657
H -0.542363854585 -0.847502737244 0.389745536667
H 1.94796980016 -0.960066565064 0.0005254827684
H 1.7678416587 2.14954186294 -0.110910039241
H 3.96552835689 -0.00766306231476 0.52738239467
H 4.071369797 1.7864405089 0.96569412811
