10
27
C 0.0 0.0 0.0
C 1.44697108006 0.0 0.0
C 2.2618144930532194 1.1866556546486196 0.0
C 3.5466209832336206 0.9923384266667183 0.43602845624745157
H -0.5417317725842671 0.9066032114310523 -0.22566393162923892
H -0.5408989663522277 -0.8734619949568749 0.332369907910385
H 1.9418337739393543 -0.9632305594259656 0.0032284019555720686
H 1.7732825674715615 2.1471123587689798 -0.10513632546493926
H 3.997981830665088 0.010062124337442246 0.4623123171080339
H 4.133039313975859 1.82411831921307 0.8032081146609387
