10
82
C 0.0 0.0 0.0
C 1.47018581026 0.0 0.0
C 2.21731501475 1.22753257778 0.0
C 3.0511790065 0.915850482917 1.12873037049
H -0.525060821647 0.654846003306 -0.669529299029
H -0.55414881369 -0.510325015382 0.763757991078
H 1.99716045228 -0.933595905508 -0.0211433305527
H 1.72387663809 2.16724979823 -0.156300522808
H 3.68449951603 0.0490699359869 1.12960303213
H 2.98617336025 1.49561000449 2.03154193414
