10
10
C 0.0 0.0 0.0
C 1.439795618 0.0 0.0
C 2.27512566311 1.17325910936 0.0
C 3.60245503031 1.0550355046 0.215780563462
H -0.546893724139 0.931009911371 -0.0682453782123
H -0.536722640471 -0.92552175403 0.161290983762
H 1.92431667876 -0.972098475162 0.0109448095498
H 1.78876259004 2.1399047146 -0.0885312713849
H 4.09044274102 0.0897867439532 0.284259117762
H 4.21856114448 1.93728961422 0.347342931224
