10
45
C 0.0 0.0 0.0
C 1.45456862812 0.0 0.0
C 2.24748725387 1.20045075938 0.0
C 3.43787164807 0.94728450846 0.676763022272
H -0.536270754369 0.851941176249 -0.385350632703
H -0.545279357346 -0.784463989261 0.498295762255
H 1.96016859204 -0.953686513763 -0.00484806836972
H 1.75699645275 2.1542257868 -0.122318888048
H 3.90112168044 -0.026843463306 0.661917022817
H 3.8975665295 1.71424769026 1.2817789994
