10
14
C 0.0 0.0 0.0
C 1.44148396201 0.0 0.0
C 2.2720131979523694 1.1764431946774216 0.0
C 3.5932196988591945 1.0385447057355348 0.2662722258831777
H -0.5456787772841095 0.9276964805955468 -0.10561244000884683
H -0.5377087357053628 -0.9162117279978185 0.2024730478337003
H 1.9284557921510266 -0.9700249514069388 0.009121475138144198
H 1.7851118759225764 2.1416442413112637 -0.0924707433490532
H 4.068737327548258 0.06711183984978408 0.32537487599336734
H 4.2098998028508285 1.9098340978856387 0.45260747493237863
