10
43
C 0.0 0.0 0.0
C 1.45372445611 0.0 0.0
C 2.249090784818765 1.198937875482142 0.0
C 3.452559771577887 0.9512234825650816 0.6501121281887712
H -0.5368772965526023 0.8594336054784094 -0.3681235534654607
H -0.5447947625183391 -0.795962544159051 0.48083829667529215
H 1.9581422642748045 -0.9547546178952331 -0.003955473203120467
H 1.7588005517261491 2.1534611783891293 -0.12043035137860464
H 3.9118350746646082 -0.02514962957897715 0.6390344378159252
H 3.9311654050475733 1.726030319404706 1.230421383106089
