10
69
C 0.0 0.0 0.0
C 1.46469869221 0.0 0.0
C 2.22802394193 1.21821424476 0.0
C 3.21109783139 0.918914867544 0.982482588639
H -0.528997008108 0.736059572786 -0.578234015528
H -0.551053193366 -0.618628783465 0.684139510229
H 1.98427085044 -0.940724783619 -0.0154652224784
H 1.73545717784 2.16291206508 -0.144570353289
H 3.76795266091 -0.000610314697267 0.954751081621
H 3.36137112439 1.57529150127 1.82246777685
