10
93
C 0.0 0.0 0.0
C 1.47482875629 0.0 0.0
C 2.20816506391 1.2352493523 0.0
C 2.89777981874 0.918014904451 1.23650933833
H -0.521732326615 0.577273145655 -0.737992663403
H -0.556750665686 -0.410801906221 0.817981330546
H 2.00797536652 -0.927506851931 -0.0259076342283
H 1.71412618029 2.1707250165 -0.166045065322
H 3.60043068734 0.110025290826 1.28628288267
H 2.63913685308 1.42076846738 2.14905530965
