10
94
C 0.0 0.0 0.0
C 1.4752508423 0.0 0.0
C 2.207329290004118 1.2359432108984723 0.0
C 2.8830890225462915 0.9183718095976772 1.245467998883755
H -0.5214298341455951 0.5698530685394901 -0.7437843956866347
H -0.5569864008005561 -0.4014542232067162 0.8222831949885022
H 2.0089543588018297 -0.9269507689571488 -0.026338917098532373
H 1.7132419933800223 2.171032224996395 -0.16692261771648115
H 3.591970867713738 0.11640218846104389 1.3008646895978848
H 2.6067388131877167 1.4135046974926584 2.1568391025583926
