10
68
C 0.0 0.0 0.0
C 1.4642766062 0.0 0.0
C 2.228842934238166 1.2174885796214567 0.0
C 3.222364843373514 0.9194634030486826 0.9705276098725131
H -0.5292999026593717 0.7417996798862467 -0.570786181890054
H -0.5508141403556931 -0.626476693627848 0.6773577976174736
H 1.983274499270905 -0.9412700760165724 -0.015026317739622269
H 1.7363505360628704 2.16256786614205 -0.143658539947697
H 3.773881364750185 -0.0034088350093475217 0.9417943682329629
H 3.388138426209175 1.5811717336636244 1.8035484134572042
