10
20
C 0.0 0.0 0.0
C 1.44401647803 0.0 0.0
C 2.26732182601 1.18118249923 0.0
C 3.57492922295 1.01579807132 0.343724428367
H -0.543856781901 0.919914207785 -0.161351096381
H -0.539183921396 -0.898823820156 0.263263287027
H 1.93464436461 -0.966899537928 0.00639535896207
H 1.77964537082 2.14420299287 -0.0983427126772
H 4.03605731313 0.0376121293706 0.387934277731
H 4.18389550351 1.86958073363 0.613382717684
