10
26
C 0.0 0.0 0.0
C 1.44654899405 0.0 0.0
C 2.2626034859010473 1.185877478308989 0.0
C 3.5511341605449047 0.9954852077137746 0.42274546911467836
H -0.5420353020162276 0.9087817862838975 -0.21653478395792128
H -0.5406543560283309 -0.8774137479582278 0.32263206210923934
H 1.9408087375569272 -0.9637561803590231 0.0036799318438762198
H 1.774190552137751 2.146701698297166 -0.10416959368017686
H 4.003409652352939 0.013544729593129246 0.45159010254782367
H 4.141685205969283 1.8305125952304393 0.7760445423932647
