10
25
C 0.0 0.0 0.0
C 1.44612690805 0.0 0.0
C 2.263391737196318 1.1850980664618724 0.0
C 3.555489768696674 0.9987003039151238 0.40949028072517185
H -0.5423388459414598 0.9108683485134519 -0.20738461930415528
H -0.5404096136373835 -0.8812568580740603 0.31284734099176487
H 1.9397830264491127 -0.9642813094105858 0.004131759489420907
H 1.7750988675588544 2.1462893886272316 -0.10320159700295636
H 4.008842155091289 0.017178374605692937 0.440901082285875
H 4.149867837491909 1.8369402574399532 0.7488814931755385
