10
91
C 0.0 0.0 0.0
C 1.47398458429 0.0 0.0
C 2.20983464333 1.23385779632 0.0
C 2.92680423308 0.917370503387 1.21815320586
H -0.522337360793 0.591935824103 -0.726187532231
H -0.556278796921 -0.429357977023 0.809059103688
H 2.00601528854 -0.928617761433 -0.0250441495754
H 1.71589566555 2.17010626632 -0.164285787267
H 3.61690313587 0.0976834719161 1.25727246328
H 2.70360274678 1.43504459206 2.13201345819
