10
40
C 0.0 0.0 0.0
C 1.4524581981 0.0 0.0
C 2.251490677732483 1.1966591965663411 0.0
C 3.4733640817671594 0.9576232216476959 0.6099994879661015
H -0.5377872221602027 0.8700176975256044 -0.3420120859796757
H -0.5440668783414809 -0.8124793334284154 0.4541571855238902
H 1.9550976627408052 -0.9563532215702373 -0.0026143306118375457
H 1.7615092909314523 2.1523022859915564 -0.1175878080071962
H 3.927907782694244 -0.021483029739992388 0.6050742689122869
H 3.9781157438139196 1.7438736445576177 1.152227727627937
