10
72
C 0.0 0.0 0.0
C 1.46596495022 0.0 0.0
C 2.2255628494983943 1.2203836499488352 0.0
C 3.176388187203902 0.9175566162238542 1.017793956086451
H -0.5280884190130941 0.7183924705759266 -0.6002277970875254
H -0.55176955687345 -0.5946493662202038 0.7039363489603406
H 1.9872557588751643 -0.9390862420361413 -0.016780115889983502
H 1.7327792778940685 2.1639355776128717 -0.14729769336100107
H 3.749816271531343 0.008666994670463835 0.9940451853084075
H 3.2791099315944012 1.557485969303015 1.8769222089415898
