10
96
C 0.0 0.0 0.0
C 1.47609501431 0.0 0.0
C 2.20565578034 1.23732708625 0.0
C 2.85335947097 0.919148943227 1.2629364288
H -0.520824898624 0.554839170777 -0.755143232544
H -0.557457472411 -0.382625638466 0.830566036876
H 2.01091024845 -0.925837352056 -0.0272005633231
H 1.71147473211 2.17164232379 -0.168673540727
H 3.57458234492 0.129564158649 1.3301706282
H 2.54166642881 1.39871431417 2.17092296715
