10
24
C 0.0 0.0 0.0
C 1.44570482205 0.0 0.0
C 2.2641792456427345 1.1843174198183306 0.0
C 3.559688487417449 1.001983670044408 0.3962655653076148
H -0.5426424043146185 0.91286269552903 -0.19821436592044836
H -0.5401647392034254 -0.8849907703956049 0.3030169575702639
H 1.9387566410482167 -0.964805945462612 0.004583884722557274
H 1.7760075127045505 2.1458754266240154 -0.10223233752169023
H 4.014278905028872 0.02096306694111727 0.43024464672461016
H 4.157588828297801 1.8434014050357337 0.7217278623577488
