10
72
C 0.0 0.0 0.0
C 1.46596495022 0.0 0.0
C 2.2255628495 1.22038364995 0.0
C 3.1763881872 0.917556616224 1.01779395609
H -0.528088419013 0.718392470576 -0.600227797088
H -0.551769556873 -0.59464936622 0.70393634896
H 1.98725575888 -0.939086242036 -0.01678011589
H 1.73277927789 2.16393557761 -0.147297693361
H 3.74981627153 0.00866699467046 0.994045185308
H 3.27910993159 1.5574859693 1.87692220894
