10
30
C 0.0 0.0 0.0
C 1.44823733807 0.0 0.0
C 2.25944307769 1.1889827635 0.0
C 3.53212974484 0.983308059862 0.476017277713
H -0.540821271571 0.899517577288 -0.252916021496
H -0.541632004925 -0.860960629069 0.361290164848
H 1.94490483065 -0.961650756121 0.00187560009434
H 1.77056060759 2.14833447612 -0.108028911089
H 3.98172971572 0.000520350490247 0.494684903993
H 4.10430883415 1.80513390208 0.884611989979
