10
8
C 0.0 0.0 0.0
C 1.43895144599 0.0 0.0
C 2.27667733079 1.17165971932 0.0
C 3.60621088662 1.06367040003 0.190936688062
H -0.547501281851 0.932102177899 -0.0495221545836
H -0.536228801722 -0.929483067787 0.140534185077
H 1.92224311305 -0.973132185326 0.0118582504916
H 1.79058983312 2.13902476849 -0.0865541384437
H 4.10124318845 0.102022768502 0.263880864529
H 4.22038112697 1.95118898987 0.295470155014
