10
99
C 0.0 0.0 0.0
C 1.47736127232 0.0 0.0
C 2.2031406306696777 1.2393932854704335 0.0
C 2.8079238815527083 0.9204544534318202 1.2879875709439175
H -0.519917619280934 0.5318953394754113 -0.7716112622595539
H -0.5581630831599319 -0.35406808884353785 0.8421813326625538
H 2.013838841677703 -0.9241641157864403 -0.028490732089327158
H 1.7088266243170707 2.172546721263947 -0.1712894448607653
H 3.5472621998945986 0.15031501383139845 1.3744491357581703
H 2.4435305550376754 1.3758383984851594 2.18831855672442
