10
48
C 0.0 0.0 0.0
C 1.45583488613 0.0 0.0
C 2.2450765793 1.20271071854 0.0
C 3.41461128727 0.941859416202 0.71654694583
H -0.53536105399 0.840055409007 -0.410902897277
H -0.546005257377 -0.766500905498 0.523965737383
H 1.96320296634 -0.952080826901 -0.00618470865387
H 1.75429291034 2.1553607817 -0.125141915353
H 3.88503246553 -0.0282600040656 0.696626513535
H 3.8437662503 1.69671830381 1.357470648
