10
96
C 0.0 0.0 0.0
C 1.47609501431 0.0 0.0
C 2.2056557803369845 1.2373270862543793 0.0
C 2.853359470969364 0.9191489432271427 1.2629364288031495
H -0.5208248986239892 0.5548391707765913 -0.7551432325440547
H -0.5574574724109311 -0.3826256384656337 0.830566036875675
H 2.0109102484543815 -0.9258373520555775 -0.027200563323089337
H 1.7114747321106838 2.1716423237890217 -0.1686735407270032
H 3.574582344915573 0.12956415864872062 1.330170628199622
H 2.5416664288092656 1.3987143141711342 2.1709229671494863
