10
6
C 0.0 0.0 0.0
C 1.43810727398 0.0 0.0
C 2.278225941916512 1.1700554387604636 0.0
C 3.609404678184928 1.0725603179646988 0.16638620383624103
H -0.5481088954584735 0.9328176020956149 -0.030782580609440034
H -0.53573443572177 -0.932978398768923 0.11968073263680158
H 1.9201668793864 -0.9741638494291184 0.012772872435340827
H 1.7924183210934368 2.1381380005449895 -0.08457209692277107
H 4.111994797801293 0.11485531453406295 0.24362590946409352
H 4.22057376303491 1.9651945850889385 0.24418070986691914
