10
58
C 0.0 0.0 0.0
C 1.46005574617 0.0 0.0
C 2.23699480172 1.21016251826 0.0
C 3.32648360295 0.927803822553 0.846582073937
H -0.532329707313 0.794961257204 -0.493299354329
H -0.54841632116 -0.700698495547 0.604726123139
H 1.97327307695 -0.94669829474 -0.0106206121416
H 1.74530392201 2.15904181776 -0.134466633555
H 3.83074947809 -0.0232673901731 0.816014670944
H 3.63602022791 1.63905292806 1.59513129837
