10
7
C 0.0 0.0 0.0
C 1.43852935999 0.0 0.0
C 2.27745201905 1.17085818999 0.0
C 3.60787743189 1.06808371969 0.178623600651
H -0.547805081684 0.932507012382 -0.0401539370471
H -0.535981684633 -0.931289133201 0.130118887495
H 1.92120532949 -0.973648273685 0.0123154139085
H 1.7915039221 2.13858223881 -0.0855637301695
H 4.10662578682 0.108364615028 0.253737749402
H 4.22067856182 1.95817893364 0.269749023387
