10
85
C 0.0 0.0 0.0
C 1.47145206827 0.0 0.0
C 2.21482754077 1.22965246293 0.0
C 3.01089395147 0.91607840798 1.15972553109
H -0.524152855328 0.634451521099 -0.689042909283
H -0.554860003062 -0.483825370604 0.779781568116
H 2.00011832745 -0.931940359355 -0.0224463530156
H 1.72121299528 2.16821513421 -0.15897469251
H 3.66305287111 0.0640017185812 1.17160007721
H 2.89359833078 1.47603182877 2.06927814458
