10
60
C 0.0 0.0 0.0
C 1.46089991818 0.0 0.0
C 2.23536999443269 1.2116378107961001 0.0
C 3.306921687997157 0.9257010939438337 0.8719460982708134
H -0.5317236220966021 0.7849584957473239 -0.5092154755141611
H -0.5488969449655914 -0.6864973585801992 0.6199321339009642
H 1.975278867599613 -0.9456162708301177 -0.011504173204195724
H 1.7435103773401428 2.1597593278886436 -0.1363157005047138
H 3.819659388116651 -0.02048123350486708 0.8406333196511395
H 3.589479783875059 1.627557783936415 1.6394235651124056
