10
31
C 0.0 0.0 0.0
C 1.44865942407 0.0 0.0
C 2.25865113118 1.18975599076 0.0
C 3.52698017034 0.980434503042 0.489384468483
H -0.540517800402 0.896973164691 -0.261951861066
H -0.541876086936 -0.856580121618 0.370828515704
H 1.94592716404 -0.961123178507 0.00142526252733
H 1.76965395549 2.14873857097 -0.108990562902
H 3.97632351332 -0.00235832788464 0.505546886417
H 4.09379766137 1.79887095701 0.911687365358
