10
3
C 0.0 0.0 0.0
C 1.43684101597 0.0 0.0
C 2.28054310568 1.16763986097 0.0
C 3.61316325589 1.08636459971 0.130151159885
H -0.549020420101 0.93318372811 -0.002659168368
H -0.534991898307 -0.937342611686 0.0882422505733
H 1.91704753443 -0.975707490148 0.0141470172842
H 1.79516336602 2.13679500292 -0.0815898685503
H 4.12800595738 0.135217312229 0.213483745048
H 4.21789433635 1.98638657196 0.168460094421
