10
12
C 0.0 0.0 0.0
C 1.44063979 0.0 0.0
C 2.2735709488 1.17485360308 0.0
C 3.59812764229 1.04665920883 0.24089885471
H -0.546286222539 0.929541171621 -0.0869446658254
H -0.537215951821 -0.921097036835 0.181940718887
H 1.92638757298 -0.971062727608 0.010032550715
H 1.78693660119 2.14077786386 -0.0905034786781
H 4.07960411288 0.0781492246237 0.304757741116
H 4.21507839785 1.92350278832 0.399741810491
