10
15
C 0.0 0.0 0.0
C 1.44190604801 0.0 0.0
C 2.27123318692 1.17723615038 0.0
C 3.59054532337 1.03458651859 0.279048429719
H -0.545375075851 0.926633358219 -0.114932144639
H -0.537954929793 -0.913597293564 0.212691972563
H 1.92948889751 -0.969505305267 0.00866638141358
H 1.78419998992 2.14207489842 -0.093452516896
H 4.06329631791 0.0618186179897 0.33572759118
H 4.20666489013 1.90304558583 0.479196266705
