10
35
C 0.0 0.0 0.0
C 1.45034776809 0.0 0.0
C 2.25547600519 1.19283650254 0.0
C 3.50477273953 0.969620898623 0.542968229835
H -0.539304062435 0.885889546709 -0.297829830229
H -0.542851093695 -0.83800782157 0.40844188443
H 1.95000972604 -0.959008014624 -0.000373102219802
H 1.7660307111 2.15033864541 -0.112824399049
H 3.95475569837 -0.0123646437637 0.549372502842
H 4.04706623061 1.77413387454 1.01944706597
