10
81
C 0.0 0.0 0.0
C 1.46976372425 0.0 0.0
C 2.2181428345 1.2268234027 0.0
C 3.06433636543 0.915843973119 1.11814988263
H -0.525363509361 0.661511650714 -0.662889679522
H -0.553911485089 -0.519041713012 0.758215620697
H 1.99617310405 -0.934146894639 -0.0207083795648
H 1.72476525445 2.16692507056 -0.15540638584
H 3.6914348287 0.0443787403617 1.11573621348
H 3.01660636058 1.50201693383 2.01804611529
