10
87
C 0.0 0.0 0.0
C 1.47229624027 0.0 0.0
C 2.21316589215 1.23105934666 0.0
C 2.98337483187 0.916392855279 1.17974408622
H -0.523547625388 0.620530761128 -0.70170765285
H -0.555333465513 -0.465879237818 0.789954905711
H 2.00208676669 -0.930834523933 -0.023313507989
H 1.71943907514 2.16885134923 -0.160750586885
H 3.64818005353 0.0746668200791 1.19991785833
H 2.8309167713 1.46265702804 2.09210103765
