10
45
C 0.0 0.0 0.0
C 1.45456862812 0.0 0.0
C 2.247487253865421 1.200450759378593 0.0
C 3.437871648071858 0.9472845084595347 0.6767630222719158
H -0.5362707543694304 0.8519411762489546 -0.3853506327034149
H -0.545279357345729 -0.7844639892614974 0.4982957622550808
H 1.9601685920445329 -0.9536865137629271 -0.004848068369719788
H 1.7569964527525763 2.1542257868040213 -0.12231888804840957
H 3.9011216804368747 -0.02684346330596954 0.661917022817293
H 3.8975665294961215 1.7142476902624777 1.2817789994006596
