10
65
C 0.0 0.0 0.0
C 1.46301034819 0.0 0.0
C 2.23129577764 1.21530400305 0.0
C 3.25524418681 0.921408853509 0.934145761402
H -0.530208680417 0.758565174819 -0.548103584731
H -0.550096185996 -0.649570143255 0.656475609218
H 1.9802813054 -0.942903273454 -0.0137077844716
H 1.73903277853 2.1615261422 -0.140915025825
H 3.79136231438 -0.0109200240026 0.903344351518
H 3.46637646334 1.59868049596 1.74458632435
