10
53
C 0.0 0.0 0.0
C 1.45794531615 0.0 0.0
C 2.24104453177 1.20645229416 0.0
C 3.37257614258 0.934075343338 0.782153395075
H -0.533845189708 0.81854679553 -0.452663545105
H -0.547212444093 -0.734710242825 0.565303450755
H 1.9682465857 -0.949395340193 -0.00840642706103
H 1.74979400486 2.15722086592 -0.129820756778
H 3.85807392779 -0.0276287702839 0.75557641898
H 3.74522867297 1.66779283033 1.47941946139
