10
6
C 0.0 0.0 0.0
C 1.43810727398 0.0 0.0
C 2.27822594192 1.17005543876 0.0
C 3.60940467818 1.07256031796 0.166386203836
H -0.548108895458 0.932817602096 -0.0307825806094
H -0.535734435722 -0.932978398769 0.119680732637
H 1.92016687939 -0.974163849429 0.0127728724353
H 1.79241832109 2.13813800054 -0.0845720969228
H 4.1119947978 0.114855314534 0.243625909464
H 4.22057376303 1.96519458509 0.244180709867
