10
31
C 0.0 0.0 0.0
C 1.44865942407 0.0 0.0
C 2.2586511311760944 1.189755990755635 0.0
C 3.5269801703378194 0.9804345030416862 0.48938446848325273
H -0.5405178004024457 0.8969731646905158 -0.2619518610663021
H -0.5418760869355874 -0.8565801216184202 0.3708285157038372
H 1.9459271640353812 -0.961123178506834 0.0014252625273292595
H 1.769653955485781 2.14873857097111 -0.10899056290171763
H 3.976323513324642 -0.002358327884641187 0.5055468864173973
H 4.093797661367533 1.7988709570146741 0.9116873653575808
