10
73
C 0.0 0.0 0.0
C 1.46638703622 0.0 0.0
C 2.2247411178 1.22110425278 0.0
C 3.16451880865 0.917196564774 1.02937127255
H -0.527785587602 0.712356475911 -0.607439994036
H -0.552008079506 -0.586514530416 0.710349931257
H 1.98824934561 -0.938539177029 -0.0172178063396
H 1.73188737102 2.16427373054 -0.148204100594
H 3.74364281817 0.0120526459967 1.00728497669
H 3.25106255651 1.55148785574 1.8942831562
