10
44
C 0.0 0.0 0.0
C 1.45414654212 0.0 0.0
C 2.24828937872 1.19969494143 0.0
C 3.44529760343 0.949221492118 0.663448531869
H -0.536574017945 0.855730785932 -0.376755735653
H -0.54503712607 -0.790261484378 0.489600740158
H 1.95915576909 -0.95422080193 -0.00440192086407
H 1.75789832899 2.15384427917 -0.121375270235
H 3.90647886751 -0.0260715492924 0.65045075462
H 3.91459444653 1.72012850067 1.25618360708
