10
99
C 0.0 0.0 0.0
C 1.47736127232 0.0 0.0
C 2.20314063067 1.23939328547 0.0
C 2.80792388155 0.920454453432 1.28798757094
H -0.519917619281 0.531895339475 -0.77161126226
H -0.55816308316 -0.354068088844 0.842181332663
H 2.01383884168 -0.924164115786 -0.0284907320893
H 1.70882662432 2.17254672126 -0.171289444861
H 3.54726219989 0.150315013831 1.37444913576
H 2.44353055504 1.37583839849 2.18831855672
