10
95
C 0.0 0.0 0.0
C 1.4756729283 0.0 0.0
C 2.20649286172 1.23663578909 0.0
C 2.86828161439 0.918750231024 1.25427769046
H -0.52112735815 0.562374826102 -0.749501446962
H -0.557222003051 -0.392061727198 0.826478251741
H 2.00993265284 -0.926394268642 -0.0267698935033
H 1.71235817727 2.1713379931 -0.167798776769
H 3.58335620155 0.122915410101 1.31549470258
H 2.57424505783 1.40615406391 2.16412886961
