10
34
C 0.0 0.0 0.0
C 1.44992568208 0.0 0.0
C 2.2562708851484032 1.1920682355647847 0.0
C 3.51056684328102 0.97222245627906 0.529560541738575
H -0.5396074748596671 0.888795811150762 -0.2889019701610873
H -0.5426075402158783 -0.842807142267626 0.39912187326058496
H 1.9489901020671767 -0.9595375314308147 7.604086275650626e-05
H 1.7669360157947194 2.1499410663089016 -0.1118678597147158
H 3.960139293171136 -0.01008921911432481 0.5383576670068373
H 4.059452497250307 1.7802720045379936 0.9926069823188639
