10
55
C 0.0 0.0 0.0
C 1.45878948816 0.0 0.0
C 2.2394267527 1.20794015067 0.0
C 3.35462356207 0.931389456041 0.808085675318
H -0.533238950724 0.809358636338 -0.469058701991
H -0.547694392159 -0.721365799786 0.581309128759
H 1.97025924009 -0.948317901379 -0.00929300601319
H 1.74799690836 2.15795392091 -0.131683076696
H 3.84720173222 -0.0263311521066 0.779566209567
H 3.70279499933 1.65628696153 1.52651490373
