10
2
C 0.0 0.0 0.0
C 1.43641892997 0.0 0.0
C 2.281313954526116 1.1668322294347566 0.0
C 3.6141460669278014 1.0910890100426736 0.1182394028791007
H -0.5493242893465755 0.9331172120411456 0.006715252930718952
H -0.5347441223077881 -0.9385619669820424 0.07772580977328175
H 1.9160064227282412 -0.9762210046020432 0.014605654841262623
H 1.7960789928904597 2.136343899016439 -0.0805933567406619
H 4.1333061246381515 0.14230006975387133 0.2035030550895993
H 4.216229612488583 1.9934956398113446 0.14356975477560097
