10
52
C 0.0 0.0 0.0
C 1.45752323015 0.0 0.0
C 2.241852361 1.20570648448 0.0
C 3.38130904771 0.935508801437 0.769115180896
H -0.534148332137 0.82301646103 -0.444398044777
H -0.546971271467 -0.741249615268 0.557185192141
H 1.96723923063 -0.949933366628 -0.00796268552703
H 1.75069308284 2.15685199203 -0.128887617949
H 3.86348736673 -0.0280538122692 0.74367139125
H 3.76580680244 1.67355616807 1.45549284658
