10
28
C 0.0 0.0 0.0
C 1.44739316606 0.0 0.0
C 2.2610247598821376 1.187432594760549 0.0
C 3.541949590590624 0.9892599814856557 0.4493365549572709
H -0.5414282576909231 0.9043328358989869 -0.23477113611124462
H -0.5411434446289941 -0.8694021674190789 0.3420596720775066
H 1.9428581351898229 -0.9627044476685866 0.002777169943988405
H 1.7723749145034204 2.1475213731462643 -0.10610179032221154
H 3.992559052778726 0.006730542892920299 0.4730683817378146
H 4.123928737876028 1.8177572693940807 0.8303632443311617
