10
86
C 0.0 0.0 0.0
C 1.47187415427 0.0 0.0
C 2.2139970488511636 1.230356542522581 0.0
C 2.9971995990327525 0.9162201362609754 1.1698008064121987
H -0.5238502322363787 0.6275231230877661 -0.6954101498503714
H -0.5550968006662677 -0.47487949643777455 0.784919537348231
H 2.0011028950261966 -0.9313876547019324 -0.022880083249636057
H 1.7203258508146222 2.1685339739383243 -0.15986332941595394
H 3.6556767409529742 0.06926353861573908 1.185727796988766
H 2.8623473734940736 1.4693783459465486 2.080925654702005
