10
24
C 0.0 0.0 0.0
C 1.44570482205 0.0 0.0
C 2.26417924564 1.18431741982 0.0
C 3.55968848742 1.00198367004 0.396265565308
H -0.542642404315 0.912862695529 -0.19821436592
H -0.540164739203 -0.884990770396 0.30301695757
H 1.93875664105 -0.964805945463 0.00458388472256
H 1.7760075127 2.14587542662 -0.102232337522
H 4.01427890503 0.0209630669411 0.430244646725
H 4.1575888283 1.84340140504 0.721727862358
