10
17
C 0.0 0.0 0.0
C 1.44275022002 0.0 0.0
C 2.2696708999442126 1.178818378017459 0.0
C 3.584750629326383 1.0268698451028726 0.3047674211077625
H -0.5447677155498797 0.9242260528208407 -0.13353846667050517
H -0.538446922259543 -0.9080268737190053 0.23302895942764212
H 1.9315530975865192 -0.9684645023977347 0.007757082786685267
H 1.7823771768374106 2.142931165038157 -0.09541233590772366
H 4.0524045344687 0.051683792621966984 0.3565212890707691
H 4.198885879356118 1.889562848511002 0.5326465539776956
