10
17
C 0.0 0.0 0.0
C 1.44275022002 0.0 0.0
C 2.26967089994 1.17881837802 0.0
C 3.58475062933 1.0268698451 0.304767421108
H -0.54476771555 0.924226052821 -0.133538466671
H -0.53844692226 -0.908026873719 0.233028959428
H 1.93155309759 -0.968464502398 0.00775708278669
H 1.78237717684 2.14293116504 -0.0954123359077
H 4.05240453447 0.051683792622 0.356521289071
H 4.19888587936 1.88956284851 0.532646553978
