10

C   -1.8795561396   -0.0438491456   -0.4238000111
C   -0.6203107501   -0.1722214089    0.1458941912
C    0.6103206235    0.0627685619   -0.5726807641
C    1.8192576337    0.1057128379    0.0423515292
H   -1.8056074415    0.8244407796    0.3667581302
H   -2.7182589734   -0.5473985956    0.0543982582
H   -0.4467566759   -0.3499018991    1.2154482270
H    0.5176078166    0.2078867879   -1.6333985669
H    1.9138229846   -0.0257146803    1.1058413388
H    2.7261574440    0.2498843622   -0.5146699491
