10

C    0.0099793130   -0.0426199469    0.0334010820
C    1.4861157025   -0.0976854547    0.0762123373
C    2.2613530886    1.0972557235   -0.1077587602
C    2.8086804038    0.9763007590    1.2397385526
H   -0.4698842455    0.3640063373   -0.8342116499
H   -0.5810457210   -0.2205813910    0.9080009880
H    1.9848176513   -1.0325999267    0.2159134468
H    1.8101598372    2.0061670885   -0.4459653405
H    2.4257596824    1.5802733808    2.0391556726
H    3.5192864494    0.2117836737    1.4794448263
