10
26
C 0.0 0.0 0.0
C 1.42322272933 0.0 0.0
C 2.25831212575 1.17513218167 0.0
C 3.59503983452 1.12269201165 0.116185566499
H -0.541743855568 0.716106795918 -0.608270650833
H -0.340019323618 -0.989821037375 0.36228803248
H 1.93817502751 -0.960643014603 0.0405753328968
H 1.76015400043 2.13323152992 -0.0963168093313
H 4.12531353454 0.184889093615 0.224041090164
H 4.18671796897 2.02903410865 0.106124575473
