10
6
C 0.0 0.0 0.0
C 1.43272428982 0.0 0.0
C 2.27720030984 1.16751351801 0.0
C 3.61099372231 1.10577461598 0.0996251965264
H -0.54804913451 0.925220088365 -0.131804924552
H -0.491906284704 -0.96355771281 0.123265880123
H 1.91961161557 -0.973573970174 0.0212384577871
H 1.78916209357 2.13497259577 -0.0826893486553
H 4.13964797537 0.163331746812 0.192970845497
H 4.2060161611 2.01269345464 0.0970137463839
