10
19
C 0.0 0.0 0.0
C 1.4265482755 0.0 0.0
C 2.2649308022 1.17247419211 0.0
C 3.60066192092 1.1167598072 0.110376731738
H -0.543955738481 0.819748414358 -0.455553334555
H -0.394941785532 -0.989768433028 0.276696586129
H 1.93174952318 -0.965289190431 0.0337580555671
H 1.77027947337 2.13387475786 -0.0915499182074
H 4.13039282467 0.177320086837 0.213168675719
H 4.19349088771 2.02332415436 0.1028943133
