10
35
C 0.0 0.0 0.0
C 1.41894702712 0.0 0.0
C 2.24979008925 1.17853602515 0.0
C 3.58775048882 1.13033631488 0.123673871275
H -0.538892062436 0.542198209291 -0.770092548693
H -0.266922808146 -0.974953594574 0.472765592516
H 1.94631944109 -0.954479670882 0.0494159886936
H 1.74717919935 2.13235146534 -0.102441019933
H 4.11868401778 0.194657597444 0.238015849302
H 4.1779799724 2.03636116364 0.110343518223
