10
99
C 0.0 0.0 0.0
C 1.38854203357 0.0 0.0
C 2.18879428725 1.20229606337 0.0
C 3.53389731226 1.1852154959 0.177539016972
H -0.518357113711 -0.887864062027 -0.358517117612
H 0.302107765706 -0.446287751659 1.04486388599
H 2.00013572131 -0.904579043229 0.114500952588
H 1.65636220493 2.12441877736 -0.145809370578
H 4.06828482353 0.265233800336 0.337204456162
H 4.11481527424 2.08803060399 0.14248655483
