10
42
C 0.0 0.0 0.0
C 1.41562148095 0.0 0.0
C 2.24315229683 1.18117287035 0.0
C 3.58203331133 1.13629499409 0.129513323005
H -0.536667837724 0.381748728786 -0.862882825683
H -0.208340127549 -0.951762582233 0.55736613954
H 1.95256088374 -0.949538922311 0.0563492564698
H 1.73712187251 2.13162602417 -0.107200466174
H 4.11345041318 0.202283449707 0.248881564556
H 4.17116007525 2.04204906829 0.113676124885
