10
97
C 0.0 0.0 0.0
C 1.38949218962 0.0 0.0
C 2.19071076831 1.20156548578 0.0
C 3.53563471418 1.18348764623 0.175840066532
H -0.519005560588 -0.865860061273 -0.407672773088
H 0.283816762128 -0.470690753025 1.03715704159
H 1.99856977601 -0.906297370974 0.11241382224
H 1.65916108315 2.1247099937 -0.144459650572
H 4.06994720177 0.263000868887 0.334111099212
H 4.11681780401 2.08642677971 0.141425091835
