10
84
C 0.0 0.0 0.0
C 1.39566820394 0.0 0.0
C 2.20315172236 1.19679786092 0.0
C 3.54684113556 1.17227585262 0.164820801439
H -0.523209939572 -0.660618886338 -0.688086568855
H 0.16482010556 -0.621876640158 0.967244322995
H 1.98820155511 -0.917219235695 0.0989249508034
H 1.67741611388 2.12653600589 -0.135676976523
H 4.08061417996 0.248527674499 0.313992970127
H 4.12978772208 2.07598556462 0.134615332767
