10
94
C 0.0 0.0 0.0
C 1.39091742369 0.0 0.0
C 2.19358424775 1.20046816596 0.0
C 3.53823413301 1.18089733457 0.173293468886
H -0.51997742216 -0.82778363995 -0.478847288044
H 0.256357504858 -0.506817923822 1.02403469744
H 1.9962061609 -0.908855887903 0.109288987165
H 1.6633642059 2.12514169202 -0.142434328029
H 4.0724301012 0.259654578824 0.329470171586
H 4.11981799581 2.08401979544 0.139839802562
