10
14
C 0.0 0.0 0.0
C 1.42892366562 0.0 0.0
C 2.26965328345 1.17056998941 0.0
C 3.60465244009 1.11252980115 0.106235906573
H -0.545532337658 0.874349958684 -0.33567732721
H -0.433044233803 -0.983620745598 0.216540302993
H 1.92711220391 -0.968528622128 0.0289208341496
H 1.77753003632 2.13431194347 -0.088143162816
H 4.13397979419 0.171929325969 0.205401162147
H 4.19831638645 2.01923954254 0.100614342144
