10
22
C 0.0 0.0 0.0
C 1.42512304143 0.0 0.0
C 2.26209525433 1.17361445947 0.0
C 3.59825751727 1.1193007333 0.112864570779
H -0.543008451552 0.779052015732 -0.523452871043
H -0.371622180333 -0.991025343422 0.313242827246
H 1.93451292614 -0.963313808452 0.0366733516957
H 1.76593635998 2.13360352948 -0.0935932461187
H 4.12822421694 0.180560834238 0.21782859689
H 4.19059068213 2.0257724839 0.104273236718
