10
62
C 0.0 0.0 0.0
C 1.40611992047 0.0 0.0
C 2.22414141594 1.18865541425 0.0
C 3.56546649535 1.15338104511 0.146269399645
H -0.530283307641 -0.138103858848 -0.938386372756
H -0.0342280748991 -0.831920370153 0.780325469579
H 1.96992874656 -0.93471771301 0.076422254961
H 1.7085531295 2.12935835081 -0.120778824027
H 4.09812219003 0.224202714149 0.279906487781
H 4.15155760423 2.05824919067 0.123445208991
