10
43
C 0.0 0.0 0.0
C 1.41514640292 0.0 0.0
C 2.24220336091 1.18154880447 0.0
C 3.58121315071 1.13714715685 0.130348607196
H -0.536349651884 0.357419813893 -0.873508920794
H -0.199858582635 -0.947628499493 0.569269417088
H 1.95344575608 -0.948822626287 0.0573437247862
H 1.735687565 2.13151948196 -0.107880102381
H 4.11269721667 0.203374834925 0.250433536289
H 4.17018409286 2.04286085775 0.114155872573
