10
29
C 0.0 0.0 0.0
C 1.42179749526 0.0 0.0
C 2.25547298335 1.17626849493 0.0
C 3.59261769096 1.12523798255 0.118679205799
H -0.540794249777 0.662810159445 -0.66700219515
H -0.315950325862 -0.986740075518 0.399175688733
H 1.94090460084 -0.958612243999 0.0435128804131
H 1.75582359294 2.13294478489 -0.0983588088896
H 4.12311609279 0.188140687357 0.228699877512
H 4.18380907438 2.03147823435 0.107522666172
