10
44
C 0.0 0.0 0.0
C 1.4146713249 0.0 0.0
C 2.24125425527 1.18192454884 0.0
C 3.5803921329 1.13799954851 0.131184159269
H -0.536031356288 0.332795099131 -0.883448921736
H -0.191350377814 -0.943291395493 0.581115542729
H 1.95432892308 -0.948103715382 0.0583391822226
H 1.7342538724 2.13141221506 -0.108559665919
H 4.11194263335 0.204466710409 0.251985437013
H 4.16920767998 2.04367245657 0.114636535949
