10
40
C 0.0 0.0 0.0
C 1.416571637 0.0 0.0
C 2.24504965913 1.18042043321 0.0
C 3.58367106356 1.13459135775 0.127843560007
H -0.537303879974 0.429442986645 -0.839607980156
H -0.225221241167 -0.959418316753 0.533403438524
H 1.95078604266 -0.950963664599 0.054363302268
H 1.73999233017 2.13183693155 -0.105840977762
H 4.11495264862 0.200102155713 0.245777411612
H 4.17311075199 2.04042491566 0.112719375981
