10
64
C 0.0 0.0 0.0
C 1.40516976442 0.0 0.0
C 2.22223661547 1.18939947252 0.0
C 3.56379077102 1.15509451089 0.147950773819
H -0.529642450117 -0.190754329403 -0.929616554576
H -0.0163786729681 -0.815878635748 0.800317845015
H 1.97162662327 -0.933178458744 0.0784502326261
H 1.70570992654 2.12911585692 -0.122134920464
H 4.09655865879 0.226405026784 0.28300716204
H 4.14958762726 2.05986514652 0.124442298726
