10
7
C 0.0 0.0 0.0
C 1.43224921179 0.0 0.0
C 2.27625753455 1.16789623192 0.0
C 3.61020398384 1.1066181429 0.100450545886
H -0.547734923198 0.921394588385 -0.157820474764
H -0.484695713948 -0.966734689974 0.134675062157
H 1.9205545615 -0.97295258619 0.0221948559037
H 1.7877059969 2.13489263907 -0.0833712707663
H 4.1389442189 0.164404564941 0.194524777019
H 4.20505509238 2.01351244388 0.0974606360019
