10
82
C 0.0 0.0 0.0
C 1.39661835998 0.0 0.0
C 2.20506322058 1.19606148339 0.0
C 3.54855191611 1.17055397494 0.163129247579
H -0.523855144663 -0.620561824379 -0.723777857634
H 0.146546386266 -0.643679877016 0.95358508676
H 1.98657766931 -0.918861328777 0.0968619955379
H 1.68023412911 2.12680657331 -0.134324376821
H 4.08223400219 0.246307437365 0.310896209333
H 4.13177601751 2.07437667154 0.133581480367
