10
36
C 0.0 0.0 0.0
C 1.41847194909 0.0 0.0
C 2.24884234359 1.17891328535 0.0
C 3.58693631033 1.13118685845 0.124507267969
H -0.53857464589 0.520459361908 -0.785246406469
H -0.25864173164 -0.972260617858 0.484961247133
H 1.94721611295 -0.953781714529 0.0504034282569
H 1.74574060183 2.13225001698 -0.103121150858
H 4.11794050902 0.195745511951 0.239568293022
H 4.17700697862 2.03717430125 0.110816860123
