10
2
C 0.0 0.0 0.0
C 1.43462460191 0.0 0.0
C 2.28096968505 1.16598079418 0.0
C 3.61414435477 1.10240302044 0.0963266432021
H -0.549304868929 0.933161485782 -0.0270471128
H -0.520312286401 -0.949004172367 0.0784808059685
H 1.91582468668 -0.976032942489 0.0174241482096
H 1.79499242832 2.13528489385 -0.0799611219645
H 4.14244941422 0.159045897767 0.186754749906
H 4.20985646077 2.00941539544 0.0952352795577
