10
48
C 0.0 0.0 0.0
C 1.4127710128 0.0 0.0
C 2.23745613691 1.18342562732 0.0
C 3.57709947679 1.14141139196 0.134529037579
H -0.534757077069 0.231728635855 -0.916191518397
H -0.157061043012 -0.923932532243 0.62785256014
H 1.9578444394 -0.945201949264 0.0623308281946
H 1.72852526128 2.13097591563 -0.111277183757
H 4.10891041779 0.20883908705 0.258192312004
H 4.16529770551 2.04691695536 0.116568349126
