10
45
C 0.0 0.0 0.0
C 1.41419624688 0.0 0.0
C 2.24030497999 1.18230010337 0.0
C 3.57957025727 1.13885216843 0.132019978801
H -0.535712950976 0.30789393692 -0.892694593866
H -0.182816015421 -0.938752203754 0.592900706175
H 1.9552103798 -0.947382190915 0.059335625058
H 1.73282079526 2.1313042242 -0.109239156344
H 4.11118666252 0.205559074716 0.253537265871
H 4.16823083573 2.04448386522 0.115118115187
