10
21
C 0.0 0.0 0.0
C 1.42559811945 0.0 0.0
C 2.26304060838 1.17323455838 0.0
C 3.59905982772 1.11845351576 0.112035013453
H -0.543324324386 0.793256323325 -0.501198443848
H -0.379432550777 -0.990811022545 0.301031781009
H 1.93359338597 -0.963974910282 0.0357005145307
H 1.76738346119 2.1336946803 -0.0929121984218
H 4.12894845677 0.179480064049 0.21627534085
H 4.19155782819 2.02495657597 0.103812683433
