10
74
C 0.0 0.0 0.0
C 1.40041898418 0.0 0.0
C 2.21270253727 1.1931082714 0.0
C 3.55535980542 1.16367469822 0.156373085429
H -0.526431627545 -0.442482548153 -0.842283073326
H 0.0737178102634 -0.725957818525 0.891857690889
H 1.98000681655 -0.925327319101 0.0886440623438
H 1.69153151123 2.12786098504 -0.128910343976
H 4.08865681675 0.237444015648 0.298505002596
H 4.13971061888 2.06793416114 0.129482857315
