10
54
C 0.0 0.0 0.0
C 1.40992054466 0.0 0.0
C 2.23175388026 1.18567153974 0.0
C 3.57213466678 1.14653592076 0.139554316277
H -0.532842371554 0.0746376126119 -0.943577038963
H -0.104913752229 -0.888995523886 0.695603925457
H 1.96306572147 -0.940771080291 0.0683473306886
H 1.71995087776 2.13029985422 -0.115351197046
H 4.10432037054 0.215412123128 0.267500342073
H 4.15941967572 2.05177806756 0.119493562236
