10
33
C 0.0 0.0 0.0
C 1.41989718316 0.0 0.0
C 2.25168506944 1.17778093747 0.0
C 3.58937629047 1.12863592957 0.122007892504
H -0.539526565413 0.584337516534 -0.737993225861
H -0.283392727092 -0.979715770007 0.448299315205
H 1.94452110478 -0.95586770762 0.0474441703126
H 1.75005822622 2.13255216928 -0.101080552428
H 4.12016689276 0.192483273957 0.234910771187
H 4.17992469056 2.03473430427 0.109399577778
