10
20
C 0.0 0.0 0.0
C 1.42607319748 0.0 0.0
C 2.26398579101 1.17285446924 0.0
C 3.59986129537 1.11760654021 0.111205733616
H -0.543640086714 0.806825257874 -0.478559221483
H -0.387205898278 -0.99039180096 0.288848442402
H 1.93267224999 -0.964633371287 0.0347287479509
H 1.76883116581 2.13378509 -0.0922310889416
H 4.12967132575 0.178399814473 0.21472203347
H 4.19252456309 2.02414046631 0.103353042343
